@<TRIPOS>MOLECULE
3624
44 47 1 0 0 
SMALL
USER_CHARGES


@<TRIPOS>ATOM
  1 N1      -0.4220    -1.0596    -0.1067 N.ar  1 <1>   1.0000 
  2 N2      -5.0973    -2.1285    -0.1568 N.pl3 1 <1>   0.0000 
  3 N3       2.5317     4.2200     0.1299 N.pl3 1 <1>   0.0000 
  4 C4       0.6278    -0.2357    -0.0691 C.ar  1 <1>   0.0000 
  5 C5      -1.6971    -0.6365    -0.0890 C.ar  1 <1>   0.0000 
  6 C6       0.4516     1.1408    -0.0081 C.ar  1 <1>   0.0000 
  7 C7      -1.9682     0.7511    -0.0275 C.ar  1 <1>   0.0000 
  8 C8      -0.8620     1.6632     0.0141 C.ar  1 <1>   0.0000 
  9 C9      -0.1520    -2.5146    -0.1702 C.3   1 <1>   0.0000 
 10 C10       1.9265    -0.8839    -0.0979 C.ar  1 <1>   0.0000 
 11 C11      -2.7311    -1.5840    -0.1320 C.ar  1 <1>   0.0000 
 12 C12       1.5673     1.9932     0.0308 C.ar  1 <1>   0.0000 
 13 C13      -3.3333     1.1280    -0.0119 C.ar  1 <1>   0.0000 
 14 C14      -0.9887     3.0726     0.0768 C.ar  1 <1>   0.0000 
 15 C15      -4.0598    -1.1747    -0.1149 C.ar  1 <1>   0.0000 
 16 C16       1.4049     3.3739     0.0921 C.ar  1 <1>   0.0000 
 17 C17      -0.0610    -3.0728     1.2359 C.3   1 <1>   0.0000 
 18 C18      -4.3611     0.1801    -0.0550 C.ar  1 <1>   0.0000 
 19 C19       0.1268     3.9138     0.1153 C.ar  1 <1>   0.0000 
 20 C20       2.5462    -1.2467     1.0950 C.ar  1 <1>   0.0000 
 21 C21       2.5458    -1.1397    -1.3185 C.ar  1 <1>   0.0000 
 22 C22       3.7939    -1.8696     1.0673 C.ar  1 <1>   0.0000 
 23 C23       3.7934    -1.7627    -1.3463 C.ar  1 <1>   0.0000 
 24 C24       4.4176    -2.1277    -0.1533 C.ar  1 <1>   0.0000 
 25 H25      -0.8771    -3.0382    -0.7964 H     1 <1>   0.0000 
 26 H26       0.7585    -2.7424    -0.7234 H     1 <1>   0.0000 
 27 H27      -2.5828    -2.6563    -0.1402 H     1 <1>   0.0000 
 28 H28       2.5833     1.6045     0.0142 H     1 <1>   0.0000 
 29 H29      -3.6256     2.1739     0.0344 H     1 <1>   0.0000 
 30 H30      -1.9666     3.5470     0.0972 H     1 <1>   0.0000 
 31 H31       0.3620    -2.3863     1.9690 H     1 <1>   0.0000 
 32 H32       0.5221    -3.9992     1.2404 H     1 <1>   0.0000 
 33 H33      -1.0606    -3.3256     1.6058 H     1 <1>   0.0000 
 34 H34      -5.3941     0.5189    -0.0405 H     1 <1>   0.0000 
 35 H35      -0.0218     4.9897     0.1631 H     1 <1>   0.0000 
 36 H36       2.0939    -1.0236     2.0577 H     1 <1>   0.0000 
 37 H37       2.0725    -0.8605    -2.2568 H     1 <1>   0.0000 
 38 H38       4.2834    -2.1466     1.9964 H     1 <1>   0.0000 
 39 H39       4.2794    -1.9632    -2.2967 H     1 <1>   0.0000 
 40 H40      -6.0625    -1.8268    -0.1461 H     1 <1>   0.0000 
 41 H41      -4.8787    -3.1148    -0.2029 H     1 <1>   0.0000 
 42 H42       3.4627     3.8253     0.1135 H     1 <1>   0.0000 
 43 H43       2.4104     5.2230     0.1751 H     1 <1>   0.0000 
 44 H44       5.3899    -2.6110    -0.1750 H     1 <1>   0.0000 
@<TRIPOS>BOND
  1   1   4  ar  
  2   1   5  ar  
  3   1   9  1   
  4   2  15  1   
  5   2  40  1   
  6   2  41  1   
  7   3  16  1   
  8   3  42  1   
  9   3  43  1   
 10   4   6  ar  
 11   4  10  1   
 12   5   7  ar  
 13   5  11  ar  
 14   6   8  ar  
 15   6  12  ar  
 16   7   8  ar  
 17   7  13  ar  
 18   8  14  ar  
 19   9  17  1   
 20   9  25  1   
 21   9  26  1   
 22  10  20  ar  
 23  10  21  ar  
 24  11  15  ar  
 25  11  27  1   
 26  12  16  ar  
 27  12  28  1   
 28  13  18  ar  
 29  13  29  1   
 30  14  19  ar  
 31  14  30  1   
 32  15  18  ar  
 33  16  19  ar  
 34  17  31  1   
 35  17  32  1   
 36  17  33  1   
 37  18  34  1   
 38  19  35  1   
 39  20  22  ar  
 40  20  36  1   
 41  21  23  ar  
 42  21  37  1   
 43  22  24  ar  
 44  22  38  1   
 45  23  24  ar  
 46  23  39  1   
 47  24  44  1   
@<TRIPOS>SUBSTRUCTURE
  1 ****   4 GROUP 4 **** **** 0

# MOE 2018.01 (io_trps.svl 2018.01)
