@<TRIPOS>MOLECULE
*****
 27 26 0 0 0
SMALL
GASTEIGER

@<TRIPOS>ATOM
      1 C           4.0800   -2.8850    0.0000 C.3     1  UNL1       -0.0653
      2 C           3.5700   -1.4425    0.0000 C.3     1  UNL1       -0.0559
      3 C           2.0400   -1.4425    0.0000 C.3     1  UNL1       -0.0533
      4 C           1.5300    0.0000    0.0000 C.3     1  UNL1       -0.0531
      5 C           0.0000    0.0000    0.0000 C.3     1  UNL1       -0.0530
      6 C          -0.5100    1.4425    0.0000 C.3     1  UNL1       -0.0510
      7 C          -2.0400    1.4425    0.0000 C.3     1  UNL1       -0.0297
      8 C          -2.5500    2.8850    0.0000 C.3     1  UNL1        0.0442
      9 O          -3.9700    2.8850    0.0000 O.3     1  UNL1       -0.3950
     10 H           5.1700   -2.8850    0.0000 H       1  UNL1        0.0230
     11 H           3.7167   -3.3988    0.8900 H       1  UNL1        0.0230
     12 H           3.7167   -3.3988   -0.8900 H       1  UNL1        0.0230
     13 H           3.9333   -0.9287   -0.8900 H       1  UNL1        0.0263
     14 H           3.9333   -0.9287    0.8900 H       1  UNL1        0.0263
     15 H           1.6767   -1.9563   -0.8900 H       1  UNL1        0.0265
     16 H           1.6767   -1.9563    0.8900 H       1  UNL1        0.0265
     17 H           1.8933    0.5138   -0.8900 H       1  UNL1        0.0265
     18 H           1.8933    0.5138    0.8900 H       1  UNL1        0.0265
     19 H          -0.3633   -0.5138   -0.8900 H       1  UNL1        0.0265
     20 H          -0.3633   -0.5138    0.8900 H       1  UNL1        0.0265
     21 H          -0.1467    1.9563   -0.8900 H       1  UNL1        0.0266
     22 H          -0.1467    1.9563    0.8900 H       1  UNL1        0.0266
     23 H          -2.4033    0.9287   -0.8900 H       1  UNL1        0.0287
     24 H          -2.4033    0.9287    0.8900 H       1  UNL1        0.0287
     25 H          -2.1867    3.3988   -0.8900 H       1  UNL1        0.0557
     26 H          -2.1867    3.3988    0.8900 H       1  UNL1        0.0557
     27 H          -4.2967    3.8089    0.0000 H       1  UNL1        0.2094
@<TRIPOS>BOND
     1     1     2    1
     2     2     3    1
     3     3     4    1
     4     4     5    1
     5     5     6    1
     6     6     7    1
     7     7     8    1
     8     8     9    1
     9     1    10    1
    10     1    11    1
    11     1    12    1
    12     2    13    1
    13     2    14    1
    14     3    15    1
    15     3    16    1
    16     4    17    1
    17     4    18    1
    18     5    19    1
    19     5    20    1
    20     6    21    1
    21     6    22    1
    22     7    23    1
    23     7    24    1
    24     8    25    1
    25     8    26    1
    26     9    27    1
