
  CDK     1209201321

 22 22  0  0  0  0  0  0  0  0999 V2000
    1.2990   -0.7500    0.0000 C   0  0  0  0  0  0  0  0  0  0  0  0
    1.8120   -2.1595    0.0000 H   0  0  0  0  0  0  0  0  0  0  0  0
    2.7762   -0.4895    0.0000 O   0  0  0  0  0  0  0  0  0  0  0  0
    3.7404   -1.6386    0.0000 H   0  0  0  0  0  0  0  0  0  0  0  0
   -1.2990   -0.7500    0.0000 C   0  0  0  0  0  0  0  0  0  0  0  0
   -1.8120   -2.1595    0.0000 H   0  0  0  0  0  0  0  0  0  0  0  0
   -0.0000   -1.5000    0.0000 O   0  0  0  0  0  0  0  0  0  0  0  0
    1.2990    0.7500    0.0000 C   0  0  0  0  0  0  0  0  0  0  0  0
    1.8120    2.1595    0.0000 H   0  0  0  0  0  0  0  0  0  0  0  0
    2.7762    0.4895    0.0000 O   0  0  0  0  0  0  0  0  0  0  0  0
    3.7404    1.6386    0.0000 H   0  0  0  0  0  0  0  0  0  0  0  0
   -0.0000    1.5000    0.0000 C   0  0  0  0  0  0  0  0  0  0  0  0
    0.9642    2.6491    0.0000 H   0  0  0  0  0  0  0  0  0  0  0  0
   -0.9642    2.6491    0.0000 H   0  0  0  0  0  0  0  0  0  0  0  0
   -1.2990    0.7500    0.0000 C   0  0  0  0  0  0  0  0  0  0  0  0
   -1.8120    2.1595    0.0000 H   0  0  0  0  0  0  0  0  0  0  0  0
   -2.7762    0.4895    0.0000 O   0  0  0  0  0  0  0  0  0  0  0  0
   -3.7404    1.6386    0.0000 H   0  0  0  0  0  0  0  0  0  0  0  0
   -2.7762   -0.4895    0.0000 C   0  0  0  0  0  0  0  0  0  0  0  0
   -3.7404   -1.6386    0.0000 H   0  0  0  0  0  0  0  0  0  0  0  0
   -4.0752    0.2605    0.0000 H   0  0  0  0  0  0  0  0  0  0  0  0
   -2.2632    0.9200    0.0000 H   0  0  0  0  0  0  0  0  0  0  0  0
  1  8  1  0  0  0  0 
  1  2  1  0  0  0  0 
  1  3  1  0  0  0  0 
  1  7  1  0  0  0  0 
  3  4  1  0  0  0  0 
  5  7  1  0  0  0  0 
  5 19  1  0  0  0  0 
  5  6  1  0  0  0  0 
  5 15  1  0  0  0  0 
  8 10  1  0  0  0  0 
  8 12  1  0  0  0  0 
  8  9  1  0  0  0  0 
 10 11  1  0  0  0  0 
 12 13  1  0  0  0  0 
 12 14  1  0  0  0  0 
 12 15  1  0  0  0  0 
 15 16  1  0  0  0  0 
 15 17  1  0  0  0  0 
 17 18  1  0  0  0  0 
 19 20  1  0  0  0  0 
 19 22  1  0  0  0  0 
 19 21  1  0  0  0  0 
M  END
