
  CDK     1209201321

 38 39  0  0  0  0  0  0  0  0999 V2000
    1.7190   -1.2140    0.0000 N   0  0  0  0  0  0  0  0  0  0  0  0
    2.6010    0.0000    0.0000 C   0  0  0  0  0  0  0  0  0  0  0  0
    4.1010    0.0000    0.0000 H   0  0  0  0  0  0  0  0  0  0  0  0
    1.7190    1.2140    0.0000 N   0  0  0  0  0  0  0  0  0  0  0  0
    0.2930    0.7500    0.0000 C   0  0  0  0  0  0  0  0  0  0  0  0
   -1.0070    1.5000    0.0000 C   0  0  0  0  0  0  0  0  0  0  0  0
   -2.3060    0.7500    0.0000 N   0  0  0  0  0  0  0  0  0  0  0  0
   -2.3060   -0.7500    0.0000 C   0  0  0  0  0  0  0  0  0  0  0  0
   -1.0070   -1.5000    0.0000 N   0  0  0  0  0  0  0  0  0  0  0  0
    0.2930   -0.7500    0.0000 C   0  0  0  0  0  0  0  0  0  0  0  0
   -3.6050   -1.5000    0.0000 S   0  0  0  0  0  0  0  0  0  0  0  0
   -4.9041   -0.7500    0.0000 C   0  0  0  0  0  0  0  0  0  0  0  0
   -6.2031   -1.5000    0.0000 H   0  0  0  0  0  0  0  0  0  0  0  0
   -3.9399    0.3991    0.0000 H   0  0  0  0  0  0  0  0  0  0  0  0
   -5.8683    0.3991    0.0000 H   0  0  0  0  0  0  0  0  0  0  0  0
   -1.0072    3.0000    0.0000 N   0  0  0  0  0  0  0  0  0  0  0  0
   -2.3064    3.7498    0.0000 H   0  0  0  0  0  0  0  0  0  0  0  0
    0.2917    3.7502    0.0000 C   0  0  0  0  0  3  0  0  0  0  0  0
    1.5908    3.0004    0.0000 O   0  0  0  0  0  1  0  0  0  0  0  0
    0.2914    5.2502    0.0000 N   0  0  0  0  0  0  0  0  0  0  0  0
   -1.0077    6.0000    0.0000 H   0  0  0  0  0  0  0  0  0  0  0  0
    1.5903    6.0004    0.0000 C   0  0  0  0  0  0  0  0  0  0  0  0
    3.0675    6.2612    0.0000 H   0  0  0  0  0  0  0  0  0  0  0  0
    2.1036    4.5910    0.0000 C   0  0  0  0  0  3  0  0  0  0  0  0
    3.5808    4.3308    0.0000 O   0  0  0  0  0  1  0  0  0  0  0  0
    1.1396    3.4418    0.0000 O   0  0  0  0  0  1  0  0  0  0  0  0
    1.5901    7.5004    0.0000 C   0  0  0  0  0  0  0  0  0  0  0  0
    1.0768    8.9099    0.0000 H   0  0  0  0  0  0  0  0  0  0  0  0
    0.1129    7.2397    0.0000 O   0  0  0  0  0  0  0  0  0  0  0  0
   -0.8515    8.3886    0.0000 H   0  0  0  0  0  0  0  0  0  0  0  0
    2.8890    8.2506    0.0000 C   0  0  0  0  0  0  0  0  0  0  0  0
    2.8887    9.7506    0.0000 H   0  0  0  0  0  0  0  0  0  0  0  0
    3.4023    6.8412    0.0000 H   0  0  0  0  0  0  0  0  0  0  0  0
    4.3662    8.5114    0.0000 H   0  0  0  0  0  0  0  0  0  0  0  0
    2.1822   -2.6407    0.0000 C   0  0  0  0  0  0  0  0  0  0  0  0
    3.6494   -2.9528    0.0000 H   0  0  0  0  0  0  0  0  0  0  0  0
    0.6968   -2.8491    0.0000 H   0  0  0  0  0  0  0  0  0  0  0  0
    2.1296   -4.1398    0.0000 H   0  0  0  0  0  0  0  0  0  0  0  0
  1  2  1  0  0  0  0 
  1 35  1  0  0  0  0 
  1 10  1  0  0  0  0 
  2  3  1  0  0  0  0 
  2  4  1  0  0  0  0 
  4  5  1  0  0  0  0 
  5 10  1  0  0  0  0 
  5  6  1  0  0  0  0 
  6 16  1  0  0  0  0 
  6  7  1  0  0  0  0 
  7  8  1  0  0  0  0 
  8  9  1  0  0  0  0 
  8 11  1  0  0  0  0 
  9 10  1  0  0  0  0 
 11 12  1  0  0  0  0 
 12 13  1  0  0  0  0 
 12 14  1  0  0  0  0 
 12 15  1  0  0  0  0 
 16 17  1  0  0  0  0 
 16 18  1  0  0  0  0 
 18 19  1  0  0  0  0 
 18 20  1  0  0  0  0 
 20 21  1  0  0  0  0 
 20 22  1  0  0  0  0 
 22 24  1  0  0  0  0 
 22 27  1  0  0  0  0 
 22 23  1  0  0  0  0 
 24 25  1  0  0  0  0 
 24 26  1  0  0  0  0 
 27 28  1  0  0  0  0 
 27 29  1  0  0  0  0 
 27 31  1  0  0  0  0 
 29 30  1  0  0  0  0 
 31 32  1  0  0  0  0 
 31 33  1  0  0  0  0 
 31 34  1  0  0  0  0 
 35 36  1  0  0  0  0 
 35 37  1  0  0  0  0 
 35 38  1  0  0  0  0 
M  END
