
  CDK     1209201322

 39 41  0  0  0  0  0  0  0  0999 V2000
    1.7030   -1.1860    0.0000 N   0  0  0  0  0  0  0  0  0  0  0  0
    2.6120    0.0110    0.0000 C   0  0  0  0  0  0  0  0  0  0  0  0
    4.1120    0.0183    0.0000 H   0  0  0  0  0  0  0  0  0  0  0  0
    1.7030    1.1840    0.0000 C   0  0  0  0  0  0  0  0  0  0  0  0
    0.2900    0.7770    0.0000 C   0  0  0  0  0  0  0  0  0  0  0  0
   -1.0270    1.4950    0.0000 C   0  0  0  0  0  0  0  0  0  0  0  0
   -1.0450    2.9949    0.0000 O   0  0  0  0  0  0  0  0  0  0  0  0
   -2.2720    0.7770    0.0000 N   0  0  0  0  0  0  0  0  0  0  0  0
   -3.5709    1.5273    0.0000 H   0  0  0  0  0  0  0  0  0  0  0  0
   -2.2720   -0.7790    0.0000 C   0  0  0  0  0  0  0  0  0  0  0  0
   -3.5711   -1.5289    0.0000 N   0  0  0  0  0  0  0  0  0  0  0  0
   -4.8701   -0.7788    0.0000 H   0  0  0  0  0  0  0  0  0  0  0  0
   -3.5712   -3.0289    0.0000 H   0  0  0  0  0  0  0  0  0  0  0  0
   -1.0270   -1.4980    0.0000 N   0  0  0  0  0  0  0  0  0  0  0  0
    0.2900   -0.7790    0.0000 C   0  0  0  0  0  0  0  0  0  0  0  0
    2.1685    2.6099    0.0000 C   0  0  0  0  0  0  0  0  0  0  0  0
    2.1182    4.1091    0.0000 H   0  0  0  0  0  0  0  0  0  0  0  0
    0.6834    2.8208    0.0000 H   0  0  0  0  0  0  0  0  0  0  0  0
    3.6361    2.9198    0.0000 N   0  0  0  0  0  4  0  0  0  0  0  0
    3.6864    1.4206    0.0000 H   0  0  0  0  0  0  0  0  0  0  0  0
    5.1213    2.7090    0.0000 H   0  0  0  0  0  0  0  0  0  0  0  0
    4.1016    4.3457    0.0000 C   0  0  0  0  0  0  0  0  0  0  0  0
    5.4711    3.7337    0.0000 H   0  0  0  0  0  0  0  0  0  0  0  0
    3.8513    6.7598    0.0000 C   0  0  0  0  0  0  0  0  0  0  0  0
    4.1652    8.2266    0.0000 H   0  0  0  0  0  0  0  0  0  0  0  0
    4.8534    5.6437    0.0000 C   0  0  0  0  0  0  0  0  0  0  0  0
    6.3454    5.7985    0.0000 H   0  0  0  0  0  0  0  0  0  0  0  0
    2.6348    4.6596    0.0000 C   0  0  0  0  0  0  0  0  0  0  0  0
    2.4760    3.1681    0.0000 H   0  0  0  0  0  0  0  0  0  0  0  0
    1.1348    4.6617    0.0000 O   0  0  0  0  0  0  0  0  0  0  0  0
    0.3866    5.9618    0.0000 H   0  0  0  0  0  0  0  0  0  0  0  0
    2.4801    6.1516    0.0000 C   0  0  0  0  0  0  0  0  0  0  0  0
    2.0186    7.5788    0.0000 H   0  0  0  0  0  0  0  0  0  0  0  0
    1.0125    5.8418    0.0000 O   0  0  0  0  0  0  0  0  0  0  0  0
    0.0103    6.9579    0.0000 H   0  0  0  0  0  0  0  0  0  0  0  0
    2.1755   -2.6097    0.0000 C   0  0  0  0  0  0  0  0  0  0  0  0
    1.1788   -3.7306    0.0000 H   0  0  0  0  0  0  0  0  0  0  0  0
    3.1063   -3.7859    0.0000 H   0  0  0  0  0  0  0  0  0  0  0  0
    3.4954   -1.8972    0.0000 H   0  0  0  0  0  0  0  0  0  0  0  0
  1  2  1  0  0  0  0 
  1 36  1  0  0  0  0 
  1 15  1  0  0  0  0 
  2  3  1  0  0  0  0 
  2  4  1  0  0  0  0 
  4 16  1  0  0  0  0 
  4  5  1  0  0  0  0 
  5  6  1  0  0  0  0 
  5 15  1  0  0  0  0 
  6  8  1  0  0  0  0 
  6  7  1  0  0  0  0 
  8  9  1  0  0  0  0 
  8 10  1  0  0  0  0 
 10 11  1  0  0  0  0 
 10 14  1  0  0  0  0 
 11 12  1  0  0  0  0 
 11 13  1  0  0  0  0 
 14 15  1  0  0  0  0 
 16 17  1  0  0  0  0 
 16 18  1  0  0  0  0 
 16 19  1  0  0  0  0 
 19 20  1  0  0  0  0 
 19 21  1  0  0  0  0 
 19 22  1  0  0  0  0 
 22 26  1  0  0  0  0 
 22 28  1  0  0  0  0 
 22 23  1  0  0  0  0 
 24 32  1  0  0  0  0 
 24 25  1  0  0  0  0 
 24 26  1  0  0  0  0 
 26 27  1  0  0  0  0 
 28 32  1  0  0  0  0 
 28 30  1  0  0  0  0 
 28 29  1  0  0  0  0 
 30 31  1  0  0  0  0 
 32 33  1  0  0  0  0 
 32 34  1  0  0  0  0 
 34 35  1  0  0  0  0 
 36 37  1  0  0  0  0 
 36 38  1  0  0  0  0 
 36 39  1  0  0  0  0 
M  END
