
  CDK     1209201321

 26 27  0  0  0  0  0  0  0  0999 V2000
    6.9708   -1.5685    0.0000 N   0  0  0  0  0  0  0  0  0  0  0  0
    7.7209   -2.8675    0.0000 H   0  0  0  0  0  0  0  0  0  0  0  0
    5.4791   -1.4117    0.0000 C   0  0  0  0  0  0  0  0  0  0  0  0
    4.4754   -2.5264    0.0000 H   0  0  0  0  0  0  0  0  0  0  0  0
    5.1672    0.0555    0.0000 C   0  0  0  0  0  3  0  0  0  0  0  0
    6.4662    0.8055    0.0000 C   0  0  0  0  0  0  0  0  0  0  0  0
    6.6230    2.2973    0.0000 H   0  0  0  0  0  0  0  0  0  0  0  0
    7.5809   -0.1981    0.0000 C   0  0  0  0  0  0  0  0  0  0  0  0
    9.0481    0.1138    0.0000 H   0  0  0  0  0  0  0  0  0  0  0  0
    3.7968    0.6656    0.0000 C   0  0  0  0  0  0  0  0  0  0  0  0
    4.6356    1.9092    0.0000 H   0  0  0  0  0  0  0  0  0  0  0  0
    2.7178    1.7076    0.0000 H   0  0  0  0  0  0  0  0  0  0  0  0
    2.5833   -0.2161    0.0000 N   0  0  0  0  0  0  0  0  0  0  0  0
    2.7401   -1.7079    0.0000 H   0  0  0  0  0  0  0  0  0  0  0  0
    1.2130    0.3940    0.0000 C   0  0  0  0  0  0  0  0  0  0  0  0
    1.9632    1.6929    0.0000 H   0  0  0  0  0  0  0  0  0  0  0  0
    0.0000    1.2760    0.0000 C   0  0  0  0  0  0  0  0  0  0  0  0
    1.0038    2.3906    0.0000 H   0  0  0  0  0  0  0  0  0  0  0  0
   -1.0038    2.3906    0.0000 H   0  0  0  0  0  0  0  0  0  0  0  0
   -1.2130    0.3940    0.0000 C   0  0  0  0  0  0  0  0  0  0  0  0
   -1.9632    1.6929    0.0000 H   0  0  0  0  0  0  0  0  0  0  0  0
   -2.5833   -0.2161    0.0000 H   0  0  0  0  0  0  0  0  0  0  0  0
   -0.7500   -1.0320    0.0000 C   0  0  0  0  0  0  0  0  0  0  0  0
   -1.6318   -2.2454    0.0000 H   0  0  0  0  0  0  0  0  0  0  0  0
    0.7500   -1.0320    0.0000 C   0  0  0  0  0  0  0  0  0  0  0  0
    1.6318   -2.2454    0.0000 H   0  0  0  0  0  0  0  0  0  0  0  0
  1  8  1  0  0  0  0 
  1  2  1  0  0  0  0 
  1  3  1  0  0  0  0 
  3  4  1  0  0  0  0 
  3  5  1  0  0  0  0 
  5 10  1  0  0  0  0 
  5  6  1  0  0  0  0 
  6  8  1  0  0  0  0 
  6  7  1  0  0  0  0 
  8  9  1  0  0  0  0 
 10 11  1  0  0  0  0 
 10 12  1  0  0  0  0 
 10 13  1  0  0  0  0 
 13 14  1  0  0  0  0 
 13 15  1  0  0  0  0 
 15 16  1  0  0  0  0 
 15 17  1  0  0  0  0 
 15 25  1  0  0  0  0 
 17 18  1  0  0  0  0 
 17 19  1  0  0  0  0 
 17 20  1  0  0  0  0 
 20 21  1  0  0  0  0 
 20 22  1  0  0  0  0 
 20 23  1  0  0  0  0 
 23 24  1  0  0  0  0 
 23 25  1  0  0  0  0 
 25 26  1  0  0  0  0 
M  END
