
  CDK     1209201322

 27 29  0  0  0  0  0  0  0  0999 V2000
    1.2910    0.7580    0.0000 C   0  0  0  0  0  0  0  0  0  0  0  0
    2.7699    0.5075    0.0000 H   0  0  0  0  0  0  0  0  0  0  0  0
    1.7934    2.1714    0.0000 H   0  0  0  0  0  0  0  0  0  0  0  0
    0.0040   -1.5030    0.0000 C   0  0  0  0  0  0  0  0  0  0  0  0
    0.9695   -2.6510    0.0000 H   0  0  0  0  0  0  0  0  0  0  0  0
    1.3000   -0.7420    0.0000 C   0  0  0  0  0  0  0  0  0  0  0  0
    2.7755   -0.4720    0.0000 H   0  0  0  0  0  0  0  0  0  0  0  0
    1.8227   -2.1480    0.0000 H   0  0  0  0  0  0  0  0  0  0  0  0
   -0.0140    1.4970    0.0000 C   0  0  0  0  0  0  0  0  0  0  0  0
   -0.0258    2.9970    0.0000 H   0  0  0  0  0  0  0  0  0  0  0  0
   -1.3100    0.7360    0.0000 C   0  0  0  0  0  0  0  0  0  0  0  0
   -1.8419    2.1385    0.0000 H   0  0  0  0  0  0  0  0  0  0  0  0
   -2.7818    0.4467    0.0000 H   0  0  0  0  0  0  0  0  0  0  0  0
   -1.2720   -0.7470    0.0000 C   0  0  0  0  0  0  0  0  0  0  0  0
   -2.5656   -1.5063    0.0000 H   0  0  0  0  0  0  0  0  0  0  0  0
   -0.9660   -2.6472    0.0000 N   0  0  0  0  0  0  0  0  0  0  0  0
   -2.4419   -2.3792    0.0000 C   0  0  0  0  0  0  0  0  0  0  0  0
   -2.9477   -0.9671    0.0000 H   0  0  0  0  0  0  0  0  0  0  0  0
   -0.4601   -4.0593    0.0000 C   0  0  0  0  0  0  0  0  0  0  0  0
    1.0158   -4.3272    0.0000 O   0  0  0  0  0  0  0  0  0  0  0  0
   -1.4301   -5.2035    0.0000 N   0  0  0  0  0  0  0  0  0  0  0  0
   -2.9060   -4.9355    0.0000 C   0  0  0  0  0  0  0  0  0  0  0  0
   -3.8760   -6.0797    0.0000 N   0  0  0  0  0  0  0  0  0  0  0  0
   -3.3701   -7.4918    0.0000 H   0  0  0  0  0  0  0  0  0  0  0  0
   -5.3518   -5.8117    0.0000 H   0  0  0  0  0  0  0  0  0  0  0  0
   -3.4118   -3.5234    0.0000 C   0  0  0  0  0  0  0  0  0  0  0  0
   -4.8877   -3.2554    0.0000 H   0  0  0  0  0  0  0  0  0  0  0  0
  1  9  1  0  0  0  0 
  1  2  1  0  0  0  0 
  1  3  1  0  0  0  0 
  1  6  1  0  0  0  0 
  4 16  1  0  0  0  0 
  4  6  1  0  0  0  0 
  4 14  1  0  0  0  0 
  4  5  1  0  0  0  0 
  6  8  1  0  0  0  0 
  6  7  1  0  0  0  0 
  9 10  1  0  0  0  0 
  9 11  1  0  0  0  0 
  9 14  1  0  0  0  0 
 11 12  1  0  0  0  0 
 11 13  1  0  0  0  0 
 11 14  1  0  0  0  0 
 14 15  1  0  0  0  0 
 16 17  1  0  0  0  0 
 16 19  1  0  0  0  0 
 17 26  1  0  0  0  0 
 17 18  1  0  0  0  0 
 19 20  1  0  0  0  0 
 19 21  1  0  0  0  0 
 21 22  1  0  0  0  0 
 22 26  1  0  0  0  0 
 22 23  1  0  0  0  0 
 23 24  1  0  0  0  0 
 23 25  1  0  0  0  0 
 26 27  1  0  0  0  0 
M  END
