
  CDK     1209201322

 17 17  0  0  0  0  0  0  0  0999 V2000
    2.5833   -0.2161    0.0000 N   0  0  0  0  0  4  0  0  0  0  0  0
    3.7968    0.6656    0.0000 H   0  0  0  0  0  0  0  0  0  0  0  0
    1.7446   -1.4597    0.0000 H   0  0  0  0  0  0  0  0  0  0  0  0
    3.6624   -1.2581    0.0000 H   0  0  0  0  0  0  0  0  0  0  0  0
    1.2130    0.3940    0.0000 C   0  0  0  0  0  0  0  0  0  0  0  0
    1.9632    1.6929    0.0000 H   0  0  0  0  0  0  0  0  0  0  0  0
    0.7500   -1.0320    0.0000 C   0  0  0  0  0  0  0  0  0  0  0  0
    0.5933   -2.5238    0.0000 H   0  0  0  0  0  0  0  0  0  0  0  0
    2.2173   -1.3437    0.0000 H   0  0  0  0  0  0  0  0  0  0  0  0
   -0.7500   -1.0320    0.0000 C   0  0  0  0  0  0  0  0  0  0  0  0
   -2.2173   -1.3437    0.0000 H   0  0  0  0  0  0  0  0  0  0  0  0
   -0.5933   -2.5238    0.0000 O   0  0  0  0  0  0  0  0  0  0  0  0
   -1.8069   -3.4054    0.0000 H   0  0  0  0  0  0  0  0  0  0  0  0
   -1.2130    0.3940    0.0000 C   0  0  0  0  0  0  0  0  0  0  0  0
   -2.6396    0.8574    0.0000 H   0  0  0  0  0  0  0  0  0  0  0  0
    0.0000    1.2760    0.0000 C   0  0  0  0  0  0  0  0  0  0  0  0
    0.0000    2.7760    0.0000 H   0  0  0  0  0  0  0  0  0  0  0  0
  1  2  1  0  0  0  0 
  1  3  1  0  0  0  0 
  1  4  1  0  0  0  0 
  1  5  1  0  0  0  0 
  5 16  1  0  0  0  0 
  5  6  1  0  0  0  0 
  5  7  1  0  0  0  0 
  7  8  1  0  0  0  0 
  7  9  1  0  0  0  0 
  7 10  1  0  0  0  0 
 10 11  1  0  0  0  0 
 10 12  1  0  0  0  0 
 10 14  1  0  0  0  0 
 12 13  1  0  0  0  0 
 14 16  1  0  0  0  0 
 14 15  1  0  0  0  0 
 16 17  1  0  0  0  0 
M  END
