
  CDK     1209201321

 29 32  0  0  0  0  0  0  0  0999 V2000
    1.2910    0.7580    0.0000 C   0  0  0  0  0  0  0  0  0  0  0  0
    1.7934    2.1714    0.0000 H   0  0  0  0  0  0  0  0  0  0  0  0
    2.7699    0.5075    0.0000 H   0  0  0  0  0  0  0  0  0  0  0  0
    0.0040   -1.5030    0.0000 C   0  0  0  0  0  0  0  0  0  0  0  0
   -0.9660   -2.6472    0.0000 H   0  0  0  0  0  0  0  0  0  0  0  0
    0.9695   -2.6510    0.0000 H   0  0  0  0  0  0  0  0  0  0  0  0
    1.3000   -0.7420    0.0000 C   0  0  0  0  0  0  0  0  0  0  0  0
    1.8227   -2.1480    0.0000 H   0  0  0  0  0  0  0  0  0  0  0  0
    2.7755   -0.4720    0.0000 H   0  0  0  0  0  0  0  0  0  0  0  0
   -0.0140    1.4970    0.0000 C   0  0  0  0  0  0  0  0  0  0  0  0
   -0.0258    2.9970    0.0000 H   0  0  0  0  0  0  0  0  0  0  0  0
   -1.3100    0.7360    0.0000 C   0  0  0  0  0  0  0  0  0  0  0  0
   -1.8419    2.1385    0.0000 H   0  0  0  0  0  0  0  0  0  0  0  0
   -2.7818    0.4467    0.0000 H   0  0  0  0  0  0  0  0  0  0  0  0
   -1.2720   -0.7470    0.0000 C   0  0  0  0  0  0  0  0  0  0  0  0
   -4.9360   -2.0279    0.0000 C   0  0  0  0  0  0  0  0  0  0  0  0
   -4.1767   -3.3216    0.0000 N   0  0  0  0  0  0  0  0  0  0  0  0
   -2.7117   -2.9992    0.0000 C   0  0  0  0  0  0  0  0  0  0  0  0
   -1.5898   -3.9948    0.0000 H   0  0  0  0  0  0  0  0  0  0  0  0
   -2.5656   -1.5063    0.0000 N   0  0  0  0  0  0  0  0  0  0  0  0
   -6.8791   -0.3034    0.0000 N   0  0  0  0  0  0  0  0  0  0  0  0
   -5.8835    0.8185    0.0000 C   0  0  0  0  0  0  0  0  0  0  0  0
   -6.3572    2.2417    0.0000 H   0  0  0  0  0  0  0  0  0  0  0  0
   -4.4140    0.5172    0.0000 N   0  0  0  0  0  0  0  0  0  0  0  0
   -3.9403   -0.9060    0.0000 C   0  0  0  0  0  0  0  0  0  0  0  0
   -6.4054   -1.7266    0.0000 C   0  0  0  0  0  0  0  0  0  0  0  0
   -7.4011   -2.8485    0.0000 N   0  0  0  0  0  0  0  0  0  0  0  0
   -8.8705   -2.5472    0.0000 H   0  0  0  0  0  0  0  0  0  0  0  0
   -6.9273   -4.2717    0.0000 H   0  0  0  0  0  0  0  0  0  0  0  0
  1 10  1  0  0  0  0 
  1  3  1  0  0  0  0 
  1  2  1  0  0  0  0 
  1  7  1  0  0  0  0 
  4  7  1  0  0  0  0 
  4  5  1  0  0  0  0 
  4  6  1  0  0  0  0 
  4 15  1  0  0  0  0 
  7  8  1  0  0  0  0 
  7  9  1  0  0  0  0 
 10 11  1  0  0  0  0 
 10 12  1  0  0  0  0 
 10 15  1  0  0  0  0 
 12 13  1  0  0  0  0 
 12 14  1  0  0  0  0 
 12 15  1  0  0  0  0 
 15 20  1  0  0  0  0 
 16 17  1  0  0  0  0 
 16 26  1  0  0  0  0 
 16 25  1  0  0  0  0 
 17 18  1  0  0  0  0 
 18 19  1  0  0  0  0 
 18 20  1  0  0  0  0 
 20 25  1  0  0  0  0 
 21 26  1  0  0  0  0 
 21 22  1  0  0  0  0 
 22 24  1  0  0  0  0 
 22 23  1  0  0  0  0 
 24 25  1  0  0  0  0 
 26 27  1  0  0  0  0 
 27 28  1  0  0  0  0 
 27 29  1  0  0  0  0 
M  END
