
  CDK     1209201322

 19 18  0  0  0  0  0  0  0  0999 V2000
    2.9329   -1.8991    0.0000 C   0  0  0  0  0  0  0  0  0  0  0  0
    3.4460   -3.3086    0.0000 H   0  0  0  0  0  0  0  0  0  0  0  0
    1.9688   -0.7500    0.0000 H   0  0  0  0  0  0  0  0  0  0  0  0
    1.6339   -2.6491    0.0000 H   0  0  0  0  0  0  0  0  0  0  0  0
    3.8971   -0.7500    0.0000 C   0  0  0  0  0  0  0  0  0  0  0  0
    2.5981   -0.0000    0.0000 O   0  0  0  0  0  0  0  0  0  0  0  0
    1.2990   -0.7500    0.0000 C   0  0  0  0  0  0  0  0  0  0  0  0
    0.0000    0.0000    0.0000 H   0  0  0  0  0  0  0  0  0  0  0  0
    0.3349   -1.8991    0.0000 H   0  0  0  0  0  0  0  0  0  0  0  0
    2.2632   -1.8991    0.0000 H   0  0  0  0  0  0  0  0  0  0  0  0
    5.1962   -0.0000    0.0000 O   0  0  0  0  0  0  0  0  0  0  0  0
    6.4952   -0.7500    0.0000 C   0  0  0  0  0  0  0  0  0  0  0  0
    7.7942   -0.0000    0.0000 H   0  0  0  0  0  0  0  0  0  0  0  0
    5.5310   -1.8991    0.0000 H   0  0  0  0  0  0  0  0  0  0  0  0
    7.4594   -1.8991    0.0000 H   0  0  0  0  0  0  0  0  0  0  0  0
    4.8613   -1.8991    0.0000 C   0  0  0  0  0  0  0  0  0  0  0  0
    6.3385   -1.6386    0.0000 H   0  0  0  0  0  0  0  0  0  0  0  0
    3.5623   -2.6491    0.0000 H   0  0  0  0  0  0  0  0  0  0  0  0
    5.3743   -3.3086    0.0000 H   0  0  0  0  0  0  0  0  0  0  0  0
  1  2  1  0  0  0  0 
  1  3  1  0  0  0  0 
  1  4  1  0  0  0  0 
  1  5  1  0  0  0  0 
  5 16  1  0  0  0  0 
  5 11  1  0  0  0  0 
  5  6  1  0  0  0  0 
  6  7  1  0  0  0  0 
  7  8  1  0  0  0  0 
  7  9  1  0  0  0  0 
  7 10  1  0  0  0  0 
 11 12  1  0  0  0  0 
 12 13  1  0  0  0  0 
 12 14  1  0  0  0  0 
 12 15  1  0  0  0  0 
 16 17  1  0  0  0  0 
 16 18  1  0  0  0  0 
 16 19  1  0  0  0  0 
M  END
