
  CDK     1209201321

 19 19  0  0  0  0  0  0  0  0999 V2000
   -1.6700   -0.9640    0.0000 C   0  0  0  0  0  0  0  0  0  0  0  0
   -2.9690   -1.7140    0.0000 H   0  0  0  0  0  0  0  0  0  0  0  0
   -1.6700    0.5360    0.0000 C   0  0  0  0  0  0  0  0  0  0  0  0
   -2.9690    1.2860    0.0000 H   0  0  0  0  0  0  0  0  0  0  0  0
   -0.3710   -1.7140    0.0000 C   0  0  0  0  0  0  0  0  0  0  0  0
   -0.3710   -3.2140    0.0000 H   0  0  0  0  0  0  0  0  0  0  0  0
   -0.3710    1.2860    0.0000 C   0  0  0  0  0  0  0  0  0  0  0  0
   -0.3710    2.7860    0.0000 H   0  0  0  0  0  0  0  0  0  0  0  0
    0.9280   -0.9640    0.0000 C   0  0  0  0  0  0  0  0  0  0  0  0
    2.2270   -1.7140    0.0000 H   0  0  0  0  0  0  0  0  0  0  0  0
    0.9280    0.5360    0.0000 C   0  0  0  0  0  0  0  0  0  0  0  0
    2.2270    1.2860    0.0000 O   0  0  0  0  0  0  0  0  0  0  0  0
    2.2271    2.7860    0.0000 C   0  0  0  0  0  0  0  0  0  0  0  0
    1.7140    4.1955    0.0000 H   0  0  0  0  0  0  0  0  0  0  0  0
    0.7498    2.5255    0.0000 H   0  0  0  0  0  0  0  0  0  0  0  0
    3.5261    3.5360    0.0000 C   0  0  0  0  0  0  0  0  0  0  0  0
    3.5261    5.0360    0.0000 H   0  0  0  0  0  0  0  0  0  0  0  0
    4.0391    2.1264    0.0000 H   0  0  0  0  0  0  0  0  0  0  0  0
    5.0033    3.7964    0.0000 H   0  0  0  0  0  0  0  0  0  0  0  0
  1  2  1  0  0  0  0 
  1  3  1  0  0  0  0 
  1  5  1  0  0  0  0 
  3  4  1  0  0  0  0 
  3  7  1  0  0  0  0 
  5  6  1  0  0  0  0 
  5  9  1  0  0  0  0 
  7 11  1  0  0  0  0 
  7  8  1  0  0  0  0 
  9 10  1  0  0  0  0 
  9 11  1  0  0  0  0 
 11 12  1  0  0  0  0 
 12 13  1  0  0  0  0 
 13 16  1  0  0  0  0 
 13 14  1  0  0  0  0 
 13 15  1  0  0  0  0 
 16 17  1  0  0  0  0 
 16 18  1  0  0  0  0 
 16 19  1  0  0  0  0 
M  END
