
  CDK     1209201321

 21 21  0  0  0  0  0  0  0  0999 V2000
   -0.9637   -2.2204    0.0000 C   0  0  0  0  0  0  0  0  0  0  0  0
   -0.4502   -3.6298    0.0000 H   0  0  0  0  0  0  0  0  0  0  0  0
   -1.9284   -1.0717    0.0000 H   0  0  0  0  0  0  0  0  0  0  0  0
   -2.2625   -2.9709    0.0000 H   0  0  0  0  0  0  0  0  0  0  0  0
   -0.0000   -1.0710    0.0000 N   0  0  0  0  0  0  0  0  0  0  0  0
    0.9644   -2.2199    0.0000 H   0  0  0  0  0  0  0  0  0  0  0  0
    1.2990   -0.3210    0.0000 C   0  0  0  0  0  0  0  0  0  0  0  0
    1.8120   -1.7305    0.0000 H   0  0  0  0  0  0  0  0  0  0  0  0
    2.7762   -0.0605    0.0000 H   0  0  0  0  0  0  0  0  0  0  0  0
   -1.2990   -0.3220    0.0000 C   0  0  0  0  0  0  0  0  0  0  0  0
   -2.7763   -0.0618    0.0000 H   0  0  0  0  0  0  0  0  0  0  0  0
   -1.8115   -1.7317    0.0000 H   0  0  0  0  0  0  0  0  0  0  0  0
    1.2990    1.1790    0.0000 C   0  0  0  0  0  0  0  0  0  0  0  0
    1.8120    2.5885    0.0000 H   0  0  0  0  0  0  0  0  0  0  0  0
    2.7762    0.9185    0.0000 H   0  0  0  0  0  0  0  0  0  0  0  0
   -0.0000    1.9290    0.0000 C   0  0  0  0  0  0  0  0  0  0  0  0
    0.9642    3.0781    0.0000 H   0  0  0  0  0  0  0  0  0  0  0  0
   -0.9642    3.0781    0.0000 H   0  0  0  0  0  0  0  0  0  0  0  0
   -1.2990    1.1790    0.0000 C   0  0  0  0  0  0  0  0  0  0  0  0
   -1.8120    2.5885    0.0000 H   0  0  0  0  0  0  0  0  0  0  0  0
   -2.7762    0.9185    0.0000 H   0  0  0  0  0  0  0  0  0  0  0  0
  1  2  1  0  0  0  0 
  1  3  1  0  0  0  0 
  1  4  1  0  0  0  0 
  1  5  1  0  0  0  0 
  5 10  1  0  0  0  0 
  5  6  1  0  0  0  0 
  5  7  1  0  0  0  0 
  7  8  1  0  0  0  0 
  7  9  1  0  0  0  0 
  7 13  1  0  0  0  0 
 10 11  1  0  0  0  0 
 10 19  1  0  0  0  0 
 10 12  1  0  0  0  0 
 13 16  1  0  0  0  0 
 13 15  1  0  0  0  0 
 13 14  1  0  0  0  0 
 16 17  1  0  0  0  0 
 16 18  1  0  0  0  0 
 16 19  1  0  0  0  0 
 19 20  1  0  0  0  0 
 19 21  1  0  0  0  0 
M  END
