
  CDK     1209201322

 22 22  0  0  0  0  0  0  0  0999 V2000
   -0.9642   -2.6491    0.0000 C   0  0  0  0  0  0  0  0  0  0  0  0
   -0.4512   -4.0586    0.0000 H   0  0  0  0  0  0  0  0  0  0  0  0
   -1.9284   -1.5000    0.0000 H   0  0  0  0  0  0  0  0  0  0  0  0
   -2.2632   -3.3991    0.0000 H   0  0  0  0  0  0  0  0  0  0  0  0
   -0.0000   -1.5000    0.0000 N   0  0  0  0  0  0  0  0  0  0  0  0
    0.9642   -2.6491    0.0000 H   0  0  0  0  0  0  0  0  0  0  0  0
    1.2990   -0.7500    0.0000 C   0  0  0  0  0  0  0  0  0  0  0  0
    1.8120   -2.1595    0.0000 H   0  0  0  0  0  0  0  0  0  0  0  0
    2.7762   -0.4895    0.0000 H   0  0  0  0  0  0  0  0  0  0  0  0
   -1.2990   -0.7500    0.0000 C   0  0  0  0  0  0  0  0  0  0  0  0
   -1.8120   -2.1595    0.0000 H   0  0  0  0  0  0  0  0  0  0  0  0
   -2.7762   -0.4895    0.0000 H   0  0  0  0  0  0  0  0  0  0  0  0
    1.2990    0.7500    0.0000 C   0  0  0  0  0  0  0  0  0  0  0  0
    1.8120    2.1595    0.0000 H   0  0  0  0  0  0  0  0  0  0  0  0
    2.7762    0.4895    0.0000 O   0  0  0  0  0  0  0  0  0  0  0  0
    3.7404    1.6386    0.0000 H   0  0  0  0  0  0  0  0  0  0  0  0
   -0.0000    1.5000    0.0000 C   0  0  0  0  0  0  0  0  0  0  0  0
    0.9642    2.6491    0.0000 H   0  0  0  0  0  0  0  0  0  0  0  0
   -0.9642    2.6491    0.0000 H   0  0  0  0  0  0  0  0  0  0  0  0
   -1.2990    0.7500    0.0000 C   0  0  0  0  0  0  0  0  0  0  0  0
   -1.8120    2.1595    0.0000 H   0  0  0  0  0  0  0  0  0  0  0  0
   -2.7762    0.4895    0.0000 H   0  0  0  0  0  0  0  0  0  0  0  0
  1  2  1  0  0  0  0 
  1  3  1  0  0  0  0 
  1  4  1  0  0  0  0 
  1  5  1  0  0  0  0 
  5 10  1  0  0  0  0 
  5  6  1  0  0  0  0 
  5  7  1  0  0  0  0 
  7  8  1  0  0  0  0 
  7  9  1  0  0  0  0 
  7 13  1  0  0  0  0 
 10 12  1  0  0  0  0 
 10 11  1  0  0  0  0 
 10 20  1  0  0  0  0 
 13 17  1  0  0  0  0 
 13 15  1  0  0  0  0 
 13 14  1  0  0  0  0 
 15 16  1  0  0  0  0 
 17 18  1  0  0  0  0 
 17 19  1  0  0  0  0 
 17 20  1  0  0  0  0 
 20 21  1  0  0  0  0 
 20 22  1  0  0  0  0 
M  END
