
  CDK     1209201321

 30 31  0  0  0  0  0  0  0  0999 V2000
    0.0000    1.5840    0.0000 O   0  0  0  0  0  0  0  0  0  0  0  0
   -1.2130    0.7030    0.0000 C   0  0  0  0  0  0  0  0  0  0  0  0
   -2.5835    0.0934    0.0000 H   0  0  0  0  0  0  0  0  0  0  0  0
    1.2130    0.7030    0.0000 C   0  0  0  0  0  0  0  0  0  0  0  0
    1.9627    2.0022    0.0000 H   0  0  0  0  0  0  0  0  0  0  0  0
    0.5934   -2.2158    0.0000 H   0  0  0  0  0  0  0  0  0  0  0  0
    0.7500   -0.7240    0.0000 C   0  0  0  0  0  0  0  0  0  0  0  0
    2.2173   -1.0355    0.0000 O   0  0  0  0  0  0  0  0  0  0  0  0
    2.6812   -2.4619    0.0000 H   0  0  0  0  0  0  0  0  0  0  0  0
    2.5835    0.0934    0.0000 N   0  0  0  0  0  0  0  0  0  0  0  0
    2.7408   -1.3984    0.0000 C   0  0  0  0  0  0  0  0  0  0  0  0
    1.5276   -2.2805    0.0000 H   0  0  0  0  0  0  0  0  0  0  0  0
    3.7968    0.9754    0.0000 C   0  0  0  0  0  0  0  0  0  0  0  0
    3.6395    2.4672    0.0000 O   0  0  0  0  0  0  0  0  0  0  0  0
    5.1673    0.3658    0.0000 N   0  0  0  0  0  0  0  0  0  0  0  0
    5.3246   -1.1259    0.0000 C   0  0  0  0  0  0  0  0  0  0  0  0
    6.6951   -1.7356    0.0000 N   0  0  0  0  0  0  0  0  0  0  0  0
    7.9083   -0.8535    0.0000 H   0  0  0  0  0  0  0  0  0  0  0  0
    6.8524   -3.2273    0.0000 H   0  0  0  0  0  0  0  0  0  0  0  0
    4.1113   -2.0080    0.0000 C   0  0  0  0  0  0  0  0  0  0  0  0
    4.2686   -3.4998    0.0000 H   0  0  0  0  0  0  0  0  0  0  0  0
   -2.2173   -1.0355    0.0000 H   0  0  0  0  0  0  0  0  0  0  0  0
   -0.7500   -0.7240    0.0000 C   0  0  0  0  0  0  0  0  0  0  0  0
   -0.5934   -2.2158    0.0000 O   0  0  0  0  0  0  0  0  0  0  0  0
   -1.8071   -3.0973    0.0000 H   0  0  0  0  0  0  0  0  0  0  0  0
   -1.9627    2.0022    0.0000 C   0  0  0  0  0  0  0  0  0  0  0  0
   -0.5530    2.5149    0.0000 H   0  0  0  0  0  0  0  0  0  0  0  0
   -2.2228    3.4795    0.0000 H   0  0  0  0  0  0  0  0  0  0  0  0
   -3.4627    2.0026    0.0000 O   0  0  0  0  0  0  0  0  0  0  0  0
   -4.2124    3.3018    0.0000 H   0  0  0  0  0  0  0  0  0  0  0  0
  1  2  1  0  0  0  0 
  1  4  1  0  0  0  0 
  2 26  1  0  0  0  0 
  2  3  1  0  0  0  0 
  2 23  1  0  0  0  0 
  4 10  1  0  0  0  0 
  4  5  1  0  0  0  0 
  4  7  1  0  0  0  0 
  6  7  1  0  0  0  0 
  7  8  1  0  0  0  0 
  7 23  1  0  0  0  0 
  8  9  1  0  0  0  0 
 10 11  1  0  0  0  0 
 10 13  1  0  0  0  0 
 11 20  1  0  0  0  0 
 11 12  1  0  0  0  0 
 13 14  1  0  0  0  0 
 13 15  1  0  0  0  0 
 15 16  1  0  0  0  0 
 16 17  1  0  0  0  0 
 16 20  1  0  0  0  0 
 17 18  1  0  0  0  0 
 17 19  1  0  0  0  0 
 20 21  1  0  0  0  0 
 22 23  1  0  0  0  0 
 23 24  1  0  0  0  0 
 24 25  1  0  0  0  0 
 26 27  1  0  0  0  0 
 26 28  1  0  0  0  0 
 26 29  1  0  0  0  0 
 29 30  1  0  0  0  0 
M  END
