
  CDK     1209201322

 26 27  0  0  0  0  0  0  0  0999 V2000
    0.0000    1.5840    0.0000 O   0  0  0  0  0  0  0  0  0  0  0  0
   -1.2130    0.7030    0.0000 C   0  0  0  0  0  0  0  0  0  0  0  0
   -1.9627    2.0022    0.0000 H   0  0  0  0  0  0  0  0  0  0  0  0
    1.2130    0.7030    0.0000 C   0  0  0  0  0  0  0  0  0  0  0  0
    2.5835    0.0934    0.0000 H   0  0  0  0  0  0  0  0  0  0  0  0
    0.7500   -0.7240    0.0000 C   0  0  0  0  0  0  0  0  0  0  0  0
    2.2173   -1.0355    0.0000 H   0  0  0  0  0  0  0  0  0  0  0  0
    0.5934   -2.2158    0.0000 O   0  0  0  0  0  0  0  0  0  0  0  0
    1.8071   -3.0973    0.0000 H   0  0  0  0  0  0  0  0  0  0  0  0
   -2.2173   -1.0355    0.0000 H   0  0  0  0  0  0  0  0  0  0  0  0
   -0.7500   -0.7240    0.0000 C   0  0  0  0  0  0  0  0  0  0  0  0
   -0.5934   -2.2158    0.0000 O   0  0  0  0  0  0  0  0  0  0  0  0
   -1.8071   -3.0973    0.0000 H   0  0  0  0  0  0  0  0  0  0  0  0
   -2.5835    0.0934    0.0000 C   0  0  0  0  0  0  0  0  0  0  0  0
   -1.7451   -1.1505    0.0000 H   0  0  0  0  0  0  0  0  0  0  0  0
   -3.6629   -0.9483    0.0000 H   0  0  0  0  0  0  0  0  0  0  0  0
   -3.7968    0.9754    0.0000 O   0  0  0  0  0  0  0  0  0  0  0  0
   -5.1673    0.3658    0.0000 H   0  0  0  0  0  0  0  0  0  0  0  0
    3.4544    2.1594    0.0000 C   0  0  0  0  0  0  0  0  0  0  0  0
    4.4584    1.0449    0.0000 H   0  0  0  0  0  0  0  0  0  0  0  0
    3.7659    3.6267    0.0000 C   0  0  0  0  0  0  0  0  0  0  0  0
    5.1361    4.2371    0.0000 H   0  0  0  0  0  0  0  0  0  0  0  0
    1.9627    2.0022    0.0000 N   0  0  0  0  0  0  0  0  0  0  0  0
    1.3522    3.3724    0.0000 C   0  0  0  0  0  0  0  0  0  0  0  0
   -0.1151    3.6839    0.0000 H   0  0  0  0  0  0  0  0  0  0  0  0
    2.4667    4.3764    0.0000 N   0  0  0  0  0  0  0  0  0  0  0  0
  1  2  1  0  0  0  0 
  1  4  1  0  0  0  0 
  2  3  1  0  0  0  0 
  2 11  1  0  0  0  0 
  2 14  1  0  0  0  0 
  4  5  1  0  0  0  0 
  4  6  1  0  0  0  0 
  4 23  1  0  0  0  0 
  6  8  1  0  0  0  0 
  6 11  1  0  0  0  0 
  6  7  1  0  0  0  0 
  8  9  1  0  0  0  0 
 10 11  1  0  0  0  0 
 11 12  1  0  0  0  0 
 12 13  1  0  0  0  0 
 14 16  1  0  0  0  0 
 14 17  1  0  0  0  0 
 14 15  1  0  0  0  0 
 17 18  1  0  0  0  0 
 19 20  1  0  0  0  0 
 19 21  1  0  0  0  0 
 19 23  1  0  0  0  0 
 21 26  1  0  0  0  0 
 21 22  1  0  0  0  0 
 23 24  1  0  0  0  0 
 24 25  1  0  0  0  0 
 24 26  1  0  0  0  0 
M  END
