
  CDK     1209201322

 26 28  0  0  0  0  0  0  0  0999 V2000
    0.1800   -0.7410    0.0000 C   0  0  0  0  0  0  0  0  0  0  0  0
    1.6030   -1.2150    0.0000 N   0  0  0  0  0  0  0  0  0  0  0  0
    2.5100   -0.0290    0.0000 C   0  0  0  0  0  0  0  0  0  0  0  0
    4.0097   -0.0601    0.0000 H   0  0  0  0  0  0  0  0  0  0  0  0
    1.6590    1.1850    0.0000 N   0  0  0  0  0  0  0  0  0  0  0  0
   -2.4010   -0.6710    0.0000 N   0  0  0  0  0  0  0  0  0  0  0  0
   -2.3590    0.8500    0.0000 C   0  0  0  0  0  0  0  0  0  0  0  0
   -3.6411    1.6286    0.0000 H   0  0  0  0  0  0  0  0  0  0  0  0
   -1.1040    1.5470    0.0000 N   0  0  0  0  0  0  0  0  0  0  0  0
    0.1800    0.7940    0.0000 C   0  0  0  0  0  0  0  0  0  0  0  0
   -1.1590   -1.4100    0.0000 C   0  0  0  0  0  0  0  0  0  0  0  0
   -1.2140   -2.9090    0.0000 N   0  0  0  0  0  0  0  0  0  0  0  0
   -2.5397   -3.6108    0.0000 H   0  0  0  0  0  0  0  0  0  0  0  0
    0.0566   -3.7061    0.0000 H   0  0  0  0  0  0  0  0  0  0  0  0
    0.7191    2.9587    0.0000 O   0  0  0  0  0  0  0  0  0  0  0  0
    2.1740    2.5938    0.0000 C   0  0  0  0  0  0  0  0  0  0  0  0
    3.5213    1.9344    0.0000 H   0  0  0  0  0  0  0  0  0  0  0  0
    0.6166    4.4552    0.0000 C   0  0  0  0  0  0  0  0  0  0  0  0
    0.2051    5.8977    0.0000 H   0  0  0  0  0  0  0  0  0  0  0  0
   -0.8610    4.1969    0.0000 H   0  0  0  0  0  0  0  0  0  0  0  0
    2.9707    3.8648    0.0000 C   0  0  0  0  0  0  0  0  0  0  0  0
    4.1514    2.9396    0.0000 H   0  0  0  0  0  0  0  0  0  0  0  0
    4.0142    4.9423    0.0000 H   0  0  0  0  0  0  0  0  0  0  0  0
    2.0081    5.0152    0.0000 C   0  0  0  0  0  0  0  0  0  0  0  0
    3.2529    5.8522    0.0000 H   0  0  0  0  0  0  0  0  0  0  0  0
    1.3058    6.3406    0.0000 H   0  0  0  0  0  0  0  0  0  0  0  0
  1  2  1  0  0  0  0 
  1 11  1  0  0  0  0 
  1 10  1  0  0  0  0 
  2  3  1  0  0  0  0 
  3  4  1  0  0  0  0 
  3  5  1  0  0  0  0 
  5 16  1  0  0  0  0 
  5 10  1  0  0  0  0 
  6 11  1  0  0  0  0 
  6  7  1  0  0  0  0 
  7  8  1  0  0  0  0 
  7  9  1  0  0  0  0 
  9 10  1  0  0  0  0 
 11 12  1  0  0  0  0 
 12 13  1  0  0  0  0 
 12 14  1  0  0  0  0 
 15 16  1  0  0  0  0 
 15 18  1  0  0  0  0 
 16 17  1  0  0  0  0 
 16 21  1  0  0  0  0 
 18 24  1  0  0  0  0 
 18 19  1  0  0  0  0 
 18 20  1  0  0  0  0 
 21 24  1  0  0  0  0 
 21 22  1  0  0  0  0 
 21 23  1  0  0  0  0 
 24 25  1  0  0  0  0 
 24 26  1  0  0  0  0 
M  END
