
  CDK     1209201322

 39 40  0  0  0  0  0  0  0  0999 V2000
   -1.2130    0.7030    0.0000 C   0  0  0  0  0  0  0  0  0  0  0  0
   -1.9627    2.0022    0.0000 H   0  0  0  0  0  0  0  0  0  0  0  0
    0.0000    1.5840    0.0000 O   0  0  0  0  0  0  0  0  0  0  0  0
    1.2130    0.7030    0.0000 C   0  0  0  0  0  0  0  0  0  0  0  0
    2.5835    0.0934    0.0000 H   0  0  0  0  0  0  0  0  0  0  0  0
    1.9627    2.0022    0.0000 N   0  0  0  0  0  0  0  0  0  0  0  0
    1.2124    3.3011    0.0000 C   0  0  0  0  0  0  0  0  0  0  0  0
   -0.2876    3.3007    0.0000 H   0  0  0  0  0  0  0  0  0  0  0  0
    3.4627    2.0026    0.0000 C   0  0  0  0  0  0  0  0  0  0  0  0
    4.2130    0.7037    0.0000 O   0  0  0  0  0  0  0  0  0  0  0  0
    4.2124    3.3018    0.0000 N   0  0  0  0  0  0  0  0  0  0  0  0
    5.7124    3.3022    0.0000 H   0  0  0  0  0  0  0  0  0  0  0  0
    3.4620    4.6007    0.0000 C   0  0  0  0  0  0  0  0  0  0  0  0
    4.2117    5.8999    0.0000 O   0  0  0  0  0  0  0  0  0  0  0  0
    1.9620    4.6003    0.0000 C   0  0  0  0  0  0  0  0  0  0  0  0
    1.2117    5.8992    0.0000 C   0  0  0  0  0  0  0  0  0  0  0  0
    1.9614    7.1984    0.0000 H   0  0  0  0  0  0  0  0  0  0  0  0
    0.0624    6.8631    0.0000 H   0  0  0  0  0  0  0  0  0  0  0  0
    0.0629    4.9347    0.0000 H   0  0  0  0  0  0  0  0  0  0  0  0
    0.7500   -0.7240    0.0000 C   0  0  0  0  0  0  0  0  0  0  0  0
    0.5934   -2.2158    0.0000 H   0  0  0  0  0  0  0  0  0  0  0  0
    2.2173   -1.0355    0.0000 O   0  0  0  0  0  0  0  0  0  0  0  0
    2.6812   -2.4619    0.0000 H   0  0  0  0  0  0  0  0  0  0  0  0
   -0.7500   -0.7240    0.0000 C   0  0  0  0  0  0  0  0  0  0  0  0
   -0.5934   -2.2158    0.0000 H   0  0  0  0  0  0  0  0  0  0  0  0
   -2.2173   -1.0355    0.0000 O   0  0  0  0  0  0  0  0  0  0  0  0
   -2.6812   -2.4619    0.0000 H   0  0  0  0  0  0  0  0  0  0  0  0
   -2.5835    0.0934    0.0000 C   0  0  0  0  0  0  0  0  0  0  0  0
   -2.9459    1.5489    0.0000 H   0  0  0  0  0  0  0  0  0  0  0  0
   -4.0799   -0.0108    0.0000 H   0  0  0  0  0  0  0  0  0  0  0  0
   -2.7408   -1.3984    0.0000 O   0  0  0  0  0  0  0  0  0  0  0  0
   -4.1113   -2.0080    0.0000 P   0  0  0  0  0  4  0  0  0  0  0  0
   -4.4737   -0.5525    0.0000 O   0  0  0  0  0  1  0  0  0  0  0  0
   -5.6077   -2.1122    0.0000 O   0  0  0  0  0  0  0  0  0  0  0  0
   -4.2686   -3.4998    0.0000 O   0  0  0  0  0  0  0  0  0  0  0  0
   -5.6391   -4.1094    0.0000 P   0  0  0  0  0  4  0  0  0  0  0  0
   -5.7964   -5.6011    0.0000 O   0  0  0  0  0  1  0  0  0  0  0  0
   -6.0015   -2.6538    0.0000 O   0  0  0  0  0  1  0  0  0  0  0  0
   -7.1355   -4.2135    0.0000 O   0  0  0  0  0  0  0  0  0  0  0  0
  1 24  1  0  0  0  0 
  1  2  1  0  0  0  0 
  1  3  1  0  0  0  0 
  1 28  1  0  0  0  0 
  3  4  1  0  0  0  0 
  4 20  1  0  0  0  0 
  4  5  1  0  0  0  0 
  4  6  1  0  0  0  0 
  6  9  1  0  0  0  0 
  6  7  1  0  0  0  0 
  7  8  1  0  0  0  0 
  7 15  1  0  0  0  0 
  9 10  1  0  0  0  0 
  9 11  1  0  0  0  0 
 11 12  1  0  0  0  0 
 11 13  1  0  0  0  0 
 13 14  1  0  0  0  0 
 13 15  1  0  0  0  0 
 15 16  1  0  0  0  0 
 16 17  1  0  0  0  0 
 16 18  1  0  0  0  0 
 16 19  1  0  0  0  0 
 20 24  1  0  0  0  0 
 20 21  1  0  0  0  0 
 20 22  1  0  0  0  0 
 22 23  1  0  0  0  0 
 24 26  1  0  0  0  0 
 24 25  1  0  0  0  0 
 26 27  1  0  0  0  0 
 28 29  1  0  0  0  0 
 28 30  1  0  0  0  0 
 28 31  1  0  0  0  0 
 31 32  1  0  0  0  0 
 32 33  1  0  0  0  0 
 32 34  1  0  0  0  0 
 32 35  1  0  0  0  0 
 35 36  1  0  0  0  0 
 36 37  1  0  0  0  0 
 36 38  1  0  0  0  0 
 36 39  1  0  0  0  0 
M  END
