
  CDK     1209201322

 27 28  0  0  0  0  0  0  0  0999 V2000
   -1.8370   -3.3284    0.0000 C   0  0  0  0  0  0  0  0  0  0  0  0
   -0.4463   -3.8904    0.0000 H   0  0  0  0  0  0  0  0  0  0  0  0
   -1.0420   -2.0564    0.0000 H   0  0  0  0  0  0  0  0  0  0  0  0
   -2.9516   -2.3246    0.0000 N   0  0  0  0  0  0  0  0  0  0  0  0
   -4.3782   -2.7880    0.0000 C   0  0  0  0  0  0  0  0  0  0  0  0
   -4.5869   -1.3026    0.0000 H   0  0  0  0  0  0  0  0  0  0  0  0
   -5.8773   -2.7355    0.0000 H   0  0  0  0  0  0  0  0  0  0  0  0
   -4.6902   -4.2552    0.0000 C   0  0  0  0  0  0  0  0  0  0  0  0
   -6.0810   -3.6932    0.0000 H   0  0  0  0  0  0  0  0  0  0  0  0
   -5.4852   -5.5272    0.0000 H   0  0  0  0  0  0  0  0  0  0  0  0
   -3.5756   -5.2590    0.0000 C   0  0  0  0  0  0  0  0  0  0  0  0
   -4.7577   -6.1824    0.0000 H   0  0  0  0  0  0  0  0  0  0  0  0
   -2.8715   -6.5835    0.0000 H   0  0  0  0  0  0  0  0  0  0  0  0
   -2.1490   -4.7956    0.0000 C   0  0  0  0  0  0  0  0  0  0  0  0
   -0.6499   -4.8481    0.0000 H   0  0  0  0  0  0  0  0  0  0  0  0
   -1.9403   -6.2810    0.0000 H   0  0  0  0  0  0  0  0  0  0  0  0
   -2.6396   -0.8574    0.0000 S   0  0  0  0  0  0  0  0  0  0  0  0
   -2.8483    0.6280    0.0000 O   0  0  0  0  0  1  0  0  0  0  0  0
   -4.1387   -0.8049    0.0000 O   0  0  0  0  0  0  0  0  0  0  0  0
    0.7500    1.0320    0.0000 C   0  0  0  0  0  0  0  0  0  0  0  0
    1.6314    2.2457    0.0000 H   0  0  0  0  0  0  0  0  0  0  0  0
   -0.7500    1.0320    0.0000 C   0  0  0  0  0  0  0  0  0  0  0  0
   -1.6318    2.2454    0.0000 H   0  0  0  0  0  0  0  0  0  0  0  0
   -1.2130   -0.3940    0.0000 C   0  0  0  0  0  0  0  0  0  0  0  0
   -0.0000   -1.2760    0.0000 S   0  0  0  0  0  0  0  0  0  0  0  0
    1.2140   -0.3940    0.0000 C   0  0  0  0  0  0  0  0  0  0  0  0
    2.6407   -0.8572    0.0000 H   0  0  0  0  0  0  0  0  0  0  0  0
  1  2  1  0  0  0  0 
  1  3  1  0  0  0  0 
  1  4  1  0  0  0  0 
  1 14  1  0  0  0  0 
  4  5  1  0  0  0  0 
  4 17  1  0  0  0  0 
  5  8  1  0  0  0  0 
  5  6  1  0  0  0  0 
  5  7  1  0  0  0  0 
  8  9  1  0  0  0  0 
  8 10  1  0  0  0  0 
  8 11  1  0  0  0  0 
 11 12  1  0  0  0  0 
 11 13  1  0  0  0  0 
 11 14  1  0  0  0  0 
 14 16  1  0  0  0  0 
 14 15  1  0  0  0  0 
 17 24  1  0  0  0  0 
 17 18  1  0  0  0  0 
 17 19  1  0  0  0  0 
 20 26  1  0  0  0  0 
 20 21  1  0  0  0  0 
 20 22  1  0  0  0  0 
 22 24  1  0  0  0  0 
 22 23  1  0  0  0  0 
 24 25  1  0  0  0  0 
 25 26  1  0  0  0  0 
 26 27  1  0  0  0  0 
M  END
