
  CDK     1209201322

 28 28  0  0  0  0  0  0  0  0999 V2000
    0.9280    0.5360    0.0000 C   0  0  0  0  0  0  0  0  0  0  0  0
    1.4410    1.9455    0.0000 H   0  0  0  0  0  0  0  0  0  0  0  0
   -0.3710    1.2860    0.0000 N   0  0  0  0  0  0  0  0  0  0  0  0
    0.5932    2.4351    0.0000 H   0  0  0  0  0  0  0  0  0  0  0  0
   -1.3352    2.4351    0.0000 H   0  0  0  0  0  0  0  0  0  0  0  0
   -1.6700    0.5360    0.0000 C   0  0  0  0  0  0  0  0  0  0  0  0
   -3.1472    0.2755    0.0000 H   0  0  0  0  0  0  0  0  0  0  0  0
   -2.1830    1.9455    0.0000 H   0  0  0  0  0  0  0  0  0  0  0  0
   -1.6700   -0.9640    0.0000 C   0  0  0  0  0  0  0  0  0  0  0  0
   -3.1472   -0.7035    0.0000 H   0  0  0  0  0  0  0  0  0  0  0  0
   -2.1830   -2.3735    0.0000 H   0  0  0  0  0  0  0  0  0  0  0  0
   -0.3710   -1.7140    0.0000 C   0  0  0  0  0  0  0  0  0  0  0  0
   -1.3352   -2.8631    0.0000 H   0  0  0  0  0  0  0  0  0  0  0  0
    0.5932   -2.8631    0.0000 H   0  0  0  0  0  0  0  0  0  0  0  0
    0.9280   -0.9640    0.0000 C   0  0  0  0  0  0  0  0  0  0  0  0
    1.4410   -2.3735    0.0000 H   0  0  0  0  0  0  0  0  0  0  0  0
    2.4052   -0.7035    0.0000 H   0  0  0  0  0  0  0  0  0  0  0  0
    5.8108    2.3132    0.0000 C   0  0  0  0  0  0  0  0  0  0  0  0
    7.2880    2.0527    0.0000 H   0  0  0  0  0  0  0  0  0  0  0  0
    6.3238    3.7227    0.0000 H   0  0  0  0  0  0  0  0  0  0  0  0
    4.5118    3.0632    0.0000 H   0  0  0  0  0  0  0  0  0  0  0  0
    4.8466    1.1641    0.0000 C   0  0  0  0  0  3  0  0  0  0  0  0
    5.3596   -0.2454    0.0000 O   0  0  0  0  0  1  0  0  0  0  0  0
    3.3694    1.4246    0.0000 N   0  0  0  0  0  0  0  0  0  0  0  0
    2.8564    2.8341    0.0000 H   0  0  0  0  0  0  0  0  0  0  0  0
    2.4052    0.2755    0.0000 C   0  0  0  0  0  0  0  0  0  0  0  0
    1.8922   -1.1340    0.0000 H   0  0  0  0  0  0  0  0  0  0  0  0
    3.7042   -0.4745    0.0000 H   0  0  0  0  0  0  0  0  0  0  0  0
  1 26  1  0  0  0  0 
  1  3  1  0  0  0  0 
  1  2  1  0  0  0  0 
  1 15  1  0  0  0  0 
  3  4  1  0  0  0  0 
  3  5  1  0  0  0  0 
  3  6  1  0  0  0  0 
  6  8  1  0  0  0  0 
  6  9  1  0  0  0  0 
  6  7  1  0  0  0  0 
  9 10  1  0  0  0  0 
  9 11  1  0  0  0  0 
  9 12  1  0  0  0  0 
 12 13  1  0  0  0  0 
 12 14  1  0  0  0  0 
 12 15  1  0  0  0  0 
 15 16  1  0  0  0  0 
 15 17  1  0  0  0  0 
 18 19  1  0  0  0  0 
 18 20  1  0  0  0  0 
 18 21  1  0  0  0  0 
 18 22  1  0  0  0  0 
 22 24  1  0  0  0  0 
 22 23  1  0  0  0  0 
 24 25  1  0  0  0  0 
 24 26  1  0  0  0  0 
 26 27  1  0  0  0  0 
 26 28  1  0  0  0  0 
M  END
