
  CDK     1209201321

 26 26  0  0  0  0  0  0  0  0999 V2000
    1.2990    1.0230    0.0000 C   0  0  0  0  0  0  0  0  0  0  0  0
    2.7762    0.7625    0.0000 H   0  0  0  0  0  0  0  0  0  0  0  0
    1.8120    2.4325    0.0000 O   0  0  0  0  0  0  0  0  0  0  0  0
    3.2893    2.6930    0.0000 H   0  0  0  0  0  0  0  0  0  0  0  0
   -1.2990    1.0230    0.0000 C   0  0  0  0  0  0  0  0  0  0  0  0
   -2.7762    0.7625    0.0000 H   0  0  0  0  0  0  0  0  0  0  0  0
   -0.0000    1.7730    0.0000 O   0  0  0  0  0  0  0  0  0  0  0  0
    1.2990   -0.4770    0.0000 C   0  0  0  0  0  0  0  0  0  0  0  0
    2.7762   -0.2165    0.0000 H   0  0  0  0  0  0  0  0  0  0  0  0
    1.8120   -1.8865    0.0000 N   0  0  0  0  0  4  0  0  0  0  0  0
    3.2893   -2.1470    0.0000 H   0  0  0  0  0  0  0  0  0  0  0  0
    0.3348   -2.1470    0.0000 H   0  0  0  0  0  0  0  0  0  0  0  0
    1.8121   -3.3865    0.0000 H   0  0  0  0  0  0  0  0  0  0  0  0
   -0.0000   -1.2270    0.0000 C   0  0  0  0  0  0  0  0  0  0  0  0
    0.9642   -2.3761    0.0000 H   0  0  0  0  0  0  0  0  0  0  0  0
   -0.9642   -2.3761    0.0000 O   0  0  0  0  0  0  0  0  0  0  0  0
   -0.4512   -3.7856    0.0000 H   0  0  0  0  0  0  0  0  0  0  0  0
   -1.2990   -0.4770    0.0000 C   0  0  0  0  0  0  0  0  0  0  0  0
   -2.7762   -0.2165    0.0000 H   0  0  0  0  0  0  0  0  0  0  0  0
   -1.8120   -1.8865    0.0000 O   0  0  0  0  0  0  0  0  0  0  0  0
   -3.2893   -2.1470    0.0000 H   0  0  0  0  0  0  0  0  0  0  0  0
   -1.8120    2.4325    0.0000 C   0  0  0  0  0  0  0  0  0  0  0  0
   -1.8121    3.9325    0.0000 H   0  0  0  0  0  0  0  0  0  0  0  0
   -0.3348    2.6930    0.0000 H   0  0  0  0  0  0  0  0  0  0  0  0
   -3.2893    2.6930    0.0000 O   0  0  0  0  0  0  0  0  0  0  0  0
   -3.8023    4.1025    0.0000 H   0  0  0  0  0  0  0  0  0  0  0  0
  1  8  1  0  0  0  0 
  1  2  1  0  0  0  0 
  1  3  1  0  0  0  0 
  1  7  1  0  0  0  0 
  3  4  1  0  0  0  0 
  5 18  1  0  0  0  0 
  5 22  1  0  0  0  0 
  5  6  1  0  0  0  0 
  5  7  1  0  0  0  0 
  8 10  1  0  0  0  0 
  8 14  1  0  0  0  0 
  8  9  1  0  0  0  0 
 10 11  1  0  0  0  0 
 10 12  1  0  0  0  0 
 10 13  1  0  0  0  0 
 14 16  1  0  0  0  0 
 14 18  1  0  0  0  0 
 14 15  1  0  0  0  0 
 16 17  1  0  0  0  0 
 18 19  1  0  0  0  0 
 18 20  1  0  0  0  0 
 20 21  1  0  0  0  0 
 22 24  1  0  0  0  0 
 22 25  1  0  0  0  0 
 22 23  1  0  0  0  0 
 25 26  1  0  0  0  0 
M  END
