
  CDK     1209201322

 36 36  0  0  0  0  0  0  0  0999 V2000
   -2.7762   -0.4895    0.0000 C   0  0  0  0  0  3  0  0  0  0  0  0
   -3.7404   -1.6386    0.0000 O   0  0  0  0  0  1  0  0  0  0  0  0
   -3.2892    0.9200    0.0000 O   0  0  0  0  0  1  0  0  0  0  0  0
   -1.2990   -0.7500    0.0000 C   0  0  0  0  0  0  0  0  0  0  0  0
   -1.8120   -2.1595    0.0000 O   0  0  0  0  0  0  0  0  0  0  0  0
    1.2990   -0.7500    0.0000 C   0  0  0  0  0  0  0  0  0  0  0  0
    2.7762   -0.4895    0.0000 H   0  0  0  0  0  0  0  0  0  0  0  0
   -0.0000   -1.5000    0.0000 O   0  0  0  0  0  0  0  0  0  0  0  0
   -3.2893   -2.4200    0.0000 C   0  0  0  0  0  0  0  0  0  0  0  0
   -3.2892   -0.9200    0.0000 H   0  0  0  0  0  0  0  0  0  0  0  0
   -4.7665   -2.1595    0.0000 H   0  0  0  0  0  0  0  0  0  0  0  0
   -3.8023   -3.8295    0.0000 C   0  0  0  0  0  3  0  0  0  0  0  0
   -2.8381   -4.9786    0.0000 H   0  0  0  0  0  0  0  0  0  0  0  0
   -5.2795   -4.0900    0.0000 C   0  0  0  0  0  3  0  0  0  0  0  0
   -5.7926   -5.4995    0.0000 H   0  0  0  0  0  0  0  0  0  0  0  0
   -6.2437   -2.9409    0.0000 H   0  0  0  0  0  0  0  0  0  0  0  0
   -1.2990    0.7500    0.0000 C   0  0  0  0  0  0  0  0  0  0  0  0
   -1.8120    2.1595    0.0000 H   0  0  0  0  0  0  0  0  0  0  0  0
   -2.7762    0.4895    0.0000 H   0  0  0  0  0  0  0  0  0  0  0  0
   -0.0000    1.5000    0.0000 C   0  0  0  0  0  0  0  0  0  0  0  0
    0.9642    2.6491    0.0000 H   0  0  0  0  0  0  0  0  0  0  0  0
   -0.9642    2.6491    0.0000 O   0  0  0  0  0  0  0  0  0  0  0  0
   -0.4512    4.0586    0.0000 H   0  0  0  0  0  0  0  0  0  0  0  0
    1.2990    0.7500    0.0000 C   0  0  0  0  0  0  0  0  0  0  0  0
    2.7762    0.4895    0.0000 H   0  0  0  0  0  0  0  0  0  0  0  0
    1.8120    2.1595    0.0000 O   0  0  0  0  0  0  0  0  0  0  0  0
    3.2893    2.4200    0.0000 H   0  0  0  0  0  0  0  0  0  0  0  0
    1.8120   -2.1595    0.0000 C   0  0  0  0  0  0  0  0  0  0  0  0
    1.8121   -3.6595    0.0000 H   0  0  0  0  0  0  0  0  0  0  0  0
    0.3348   -2.4200    0.0000 O   0  0  0  0  0  0  0  0  0  0  0  0
   -0.1782   -3.8296    0.0000 H   0  0  0  0  0  0  0  0  0  0  0  0
    3.2893   -2.4200    0.0000 C   0  0  0  0  0  0  0  0  0  0  0  0
    4.7665   -2.1595    0.0000 H   0  0  0  0  0  0  0  0  0  0  0  0
    3.2892   -0.9200    0.0000 H   0  0  0  0  0  0  0  0  0  0  0  0
    3.8023   -3.8295    0.0000 O   0  0  0  0  0  0  0  0  0  0  0  0
    5.2795   -4.0900    0.0000 H   0  0  0  0  0  0  0  0  0  0  0  0
  1  2  1  0  0  0  0 
  1  3  1  0  0  0  0 
  1  4  1  0  0  0  0 
  4  8  1  0  0  0  0 
  4  5  1  0  0  0  0 
  4 17  1  0  0  0  0 
  5  9  1  0  0  0  0 
  6 24  1  0  0  0  0 
  6  8  1  0  0  0  0 
  6 28  1  0  0  0  0 
  6  7  1  0  0  0  0 
  9 10  1  0  0  0  0 
  9 11  1  0  0  0  0 
  9 12  1  0  0  0  0 
 12 13  1  0  0  0  0 
 12 14  1  0  0  0  0 
 14 16  1  0  0  0  0 
 14 15  1  0  0  0  0 
 17 20  1  0  0  0  0 
 17 18  1  0  0  0  0 
 17 19  1  0  0  0  0 
 20 24  1  0  0  0  0 
 20 21  1  0  0  0  0 
 20 22  1  0  0  0  0 
 22 23  1  0  0  0  0 
 24 25  1  0  0  0  0 
 24 26  1  0  0  0  0 
 26 27  1  0  0  0  0 
 28 32  1  0  0  0  0 
 28 30  1  0  0  0  0 
 28 29  1  0  0  0  0 
 30 31  1  0  0  0  0 
 32 33  1  0  0  0  0 
 32 34  1  0  0  0  0 
 32 35  1  0  0  0  0 
 35 36  1  0  0  0  0 
M  END
