
  CDK     1209201321

 24 24  0  0  0  0  0  0  0  0999 V2000
    0.2430    1.4780    0.0000 O   0  0  0  0  0  0  0  0  0  0  0  0
    1.1240    0.2640    0.0000 C   0  0  0  0  0  0  0  0  0  0  0  0
    2.2386   -0.7398    0.0000 O   0  0  0  0  0  0  0  0  0  0  0  0
    3.6653   -0.2764    0.0000 H   0  0  0  0  0  0  0  0  0  0  0  0
   -1.1840    1.0140    0.0000 C   0  0  0  0  0  0  0  0  0  0  0  0
   -1.4961    2.4812    0.0000 H   0  0  0  0  0  0  0  0  0  0  0  0
   -2.6758    0.8571    0.0000 C   0  0  0  0  0  0  0  0  0  0  0  0
   -4.0239    0.1994    0.0000 H   0  0  0  0  0  0  0  0  0  0  0  0
   -2.2622   -0.5848    0.0000 H   0  0  0  0  0  0  0  0  0  0  0  0
   -3.5575    2.0706    0.0000 O   0  0  0  0  0  0  0  0  0  0  0  0
   -5.0493    1.9137    0.0000 H   0  0  0  0  0  0  0  0  0  0  0  0
    2.2390    1.2673    0.0000 C   0  0  0  0  0  0  0  0  0  0  0  0
    2.9437    2.5915    0.0000 H   0  0  0  0  0  0  0  0  0  0  0  0
    1.0573    2.1912    0.0000 H   0  0  0  0  0  0  0  0  0  0  0  0
    3.6655    0.8034    0.0000 O   0  0  0  0  0  0  0  0  0  0  0  0
    4.7805    1.8067    0.0000 H   0  0  0  0  0  0  0  0  0  0  0  0
    0.2430   -0.9490    0.0000 C   0  0  0  0  0  0  0  0  0  0  0  0
    1.5422   -1.6987    0.0000 H   0  0  0  0  0  0  0  0  0  0  0  0
   -0.3666   -2.3195    0.0000 O   0  0  0  0  0  0  0  0  0  0  0  0
    0.5154   -3.5328    0.0000 H   0  0  0  0  0  0  0  0  0  0  0  0
   -1.1840   -0.4860    0.0000 C   0  0  0  0  0  0  0  0  0  0  0  0
   -2.6758   -0.3294    0.0000 H   0  0  0  0  0  0  0  0  0  0  0  0
   -1.4955   -1.9533    0.0000 O   0  0  0  0  0  0  0  0  0  0  0  0
   -2.9219   -2.4172    0.0000 H   0  0  0  0  0  0  0  0  0  0  0  0
  1  2  1  0  0  0  0 
  1  5  1  0  0  0  0 
  2  3  1  0  0  0  0 
  2 12  1  0  0  0  0 
  2 17  1  0  0  0  0 
  3  4  1  0  0  0  0 
  5 21  1  0  0  0  0 
  5  6  1  0  0  0  0 
  5  7  1  0  0  0  0 
  7  8  1  0  0  0  0 
  7  9  1  0  0  0  0 
  7 10  1  0  0  0  0 
 10 11  1  0  0  0  0 
 12 13  1  0  0  0  0 
 12 14  1  0  0  0  0 
 12 15  1  0  0  0  0 
 15 16  1  0  0  0  0 
 17 19  1  0  0  0  0 
 17 18  1  0  0  0  0 
 17 21  1  0  0  0  0 
 19 20  1  0  0  0  0 
 21 22  1  0  0  0  0 
 21 23  1  0  0  0  0 
 23 24  1  0  0  0  0 
M  END
