
  CDK     1209201322

 29 29  0  0  0  0  0  0  0  0999 V2000
    0.0000    1.5000    0.0000 N   0  0  0  0  0  0  0  0  0  0  0  0
    1.2990    0.7500    0.0000 C   0  0  0  0  0  0  0  0  0  0  0  0
    2.5980    1.5000    0.0000 O   0  0  0  0  0  0  0  0  0  0  0  0
    1.2990   -0.7500    0.0000 N   0  0  0  0  0  0  0  0  0  0  0  0
    0.0000   -1.5000    0.0000 C   0  0  0  0  0  0  0  0  0  0  0  0
   -0.0000   -3.0000    0.0000 O   0  0  0  0  0  0  0  0  0  0  0  0
   -1.2990   -0.7500    0.0000 C   0  0  0  0  0  0  0  0  0  0  0  0
   -2.5980   -1.5000    0.0000 H   0  0  0  0  0  0  0  0  0  0  0  0
   -1.2990    0.7500    0.0000 C   0  0  0  0  0  0  0  0  0  0  0  0
   -2.5980    1.5000    0.0000 H   0  0  0  0  0  0  0  0  0  0  0  0
    2.5980   -1.5000    0.0000 C   0  0  0  0  0  0  0  0  0  0  0  0
    4.0753   -1.7605    0.0000 H   0  0  0  0  0  0  0  0  0  0  0  0
    3.1111   -0.0904    0.0000 H   0  0  0  0  0  0  0  0  0  0  0  0
    2.5981   -3.0000    0.0000 C   0  0  0  0  0  0  0  0  0  0  0  0
    2.0850   -4.4095    0.0000 H   0  0  0  0  0  0  0  0  0  0  0  0
    1.1208   -2.7395    0.0000 H   0  0  0  0  0  0  0  0  0  0  0  0
    3.8971   -3.7500    0.0000 C   0  0  0  0  0  0  0  0  0  0  0  0
    5.3743   -4.0104    0.0000 H   0  0  0  0  0  0  0  0  0  0  0  0
    3.8971   -5.2500    0.0000 N   0  0  0  0  0  4  0  0  0  0  0  0
    5.1961   -6.0000    0.0000 H   0  0  0  0  0  0  0  0  0  0  0  0
    2.4199   -4.9895    0.0000 H   0  0  0  0  0  0  0  0  0  0  0  0
    3.3841   -6.6595    0.0000 H   0  0  0  0  0  0  0  0  0  0  0  0
    4.4101   -2.3404    0.0000 C   0  0  0  0  0  3  0  0  0  0  0  0
    5.8873   -2.0800    0.0000 O   0  0  0  0  0  1  0  0  0  0  0  0
    3.4459   -1.1914    0.0000 O   0  0  0  0  0  1  0  0  0  0  0  0
    0.0000    3.0000    0.0000 C   0  0  0  0  0  0  0  0  0  0  0  0
   -1.2990    3.7500    0.0000 H   0  0  0  0  0  0  0  0  0  0  0  0
    1.4772    2.7395    0.0000 H   0  0  0  0  0  0  0  0  0  0  0  0
    0.5130    4.4095    0.0000 H   0  0  0  0  0  0  0  0  0  0  0  0
  1  9  1  0  0  0  0 
  1  2  1  0  0  0  0 
  1 26  1  0  0  0  0 
  2  3  1  0  0  0  0 
  2  4  1  0  0  0  0 
  4 11  1  0  0  0  0 
  4  5  1  0  0  0  0 
  5  6  1  0  0  0  0 
  5  7  1  0  0  0  0 
  7  8  1  0  0  0  0 
  7  9  1  0  0  0  0 
  9 10  1  0  0  0  0 
 11 12  1  0  0  0  0 
 11 13  1  0  0  0  0 
 11 14  1  0  0  0  0 
 14 16  1  0  0  0  0 
 14 17  1  0  0  0  0 
 14 15  1  0  0  0  0 
 17 18  1  0  0  0  0 
 17 19  1  0  0  0  0 
 17 23  1  0  0  0  0 
 19 20  1  0  0  0  0 
 19 21  1  0  0  0  0 
 19 22  1  0  0  0  0 
 23 24  1  0  0  0  0 
 23 25  1  0  0  0  0 
 26 27  1  0  0  0  0 
 26 28  1  0  0  0  0 
 26 29  1  0  0  0  0 
M  END
