
  CDK     1209201322

 29 29  0  0  0  0  0  0  0  0999 V2000
    1.3060    1.0240    0.0000 C   0  0  0  0  0  0  0  0  0  0  0  0
    2.7838    0.7666    0.0000 H   0  0  0  0  0  0  0  0  0  0  0  0
    1.8131    2.4357    0.0000 O   0  0  0  0  0  0  0  0  0  0  0  0
    3.2893    2.7023    0.0000 H   0  0  0  0  0  0  0  0  0  0  0  0
   -1.3100    1.0240    0.0000 C   0  0  0  0  0  0  0  0  0  0  0  0
   -2.7876    0.7656    0.0000 H   0  0  0  0  0  0  0  0  0  0  0  0
   -0.0050    1.7700    0.0000 O   0  0  0  0  0  0  0  0  0  0  0  0
    1.3060   -0.4740    0.0000 C   0  0  0  0  0  0  0  0  0  0  0  0
    2.7835   -0.2151    0.0000 H   0  0  0  0  0  0  0  0  0  0  0  0
    1.8161   -1.8846    0.0000 O   0  0  0  0  0  0  0  0  0  0  0  0
    3.2927   -2.1482    0.0000 H   0  0  0  0  0  0  0  0  0  0  0  0
   -0.0060   -1.2260    0.0000 C   0  0  0  0  0  0  0  0  0  0  0  0
   -0.9710   -2.3744    0.0000 H   0  0  0  0  0  0  0  0  0  0  0  0
    0.9560   -2.3769    0.0000 O   0  0  0  0  0  0  0  0  0  0  0  0
    0.4402   -3.7855    0.0000 H   0  0  0  0  0  0  0  0  0  0  0  0
   -1.3100   -0.4740    0.0000 C   0  0  0  0  0  0  0  0  0  0  0  0
   -2.7873   -0.2138    0.0000 H   0  0  0  0  0  0  0  0  0  0  0  0
   -1.8226   -1.8837    0.0000 O   0  0  0  0  0  0  0  0  0  0  0  0
   -3.2997   -2.1447    0.0000 H   0  0  0  0  0  0  0  0  0  0  0  0
   -1.8190    2.4350    0.0000 C   0  0  0  0  0  3  0  0  0  0  0  0
   -0.8515    3.5813    0.0000 O   0  0  0  0  0  1  0  0  0  0  0  0
   -3.2955    2.6997    0.0000 N   0  0  0  0  0  0  0  0  0  0  0  0
   -4.2629    1.5534    0.0000 H   0  0  0  0  0  0  0  0  0  0  0  0
   -3.8045    4.1107    0.0000 C   0  0  0  0  0  0  0  0  0  0  0  0
   -2.3265    4.3669    0.0000 H   0  0  0  0  0  0  0  0  0  0  0  0
   -3.8002    5.6107    0.0000 H   0  0  0  0  0  0  0  0  0  0  0  0
   -5.2809    4.3754    0.0000 C   0  0  0  0  0  3  0  0  0  0  0  0
   -5.7899    5.7864    0.0000 O   0  0  0  0  0  1  0  0  0  0  0  0
   -6.2484    3.2291    0.0000 O   0  0  0  0  0  1  0  0  0  0  0  0
  1  8  1  0  0  0  0 
  1  2  1  0  0  0  0 
  1  3  1  0  0  0  0 
  1  7  1  0  0  0  0 
  3  4  1  0  0  0  0 
  5 16  1  0  0  0  0 
  5 20  1  0  0  0  0 
  5  6  1  0  0  0  0 
  5  7  1  0  0  0  0 
  8 10  1  0  0  0  0 
  8 12  1  0  0  0  0 
  8  9  1  0  0  0  0 
 10 11  1  0  0  0  0 
 12 16  1  0  0  0  0 
 12 13  1  0  0  0  0 
 12 14  1  0  0  0  0 
 14 15  1  0  0  0  0 
 16 17  1  0  0  0  0 
 16 18  1  0  0  0  0 
 18 19  1  0  0  0  0 
 20 22  1  0  0  0  0 
 20 21  1  0  0  0  0 
 22 24  1  0  0  0  0 
 22 23  1  0  0  0  0 
 24 25  1  0  0  0  0 
 24 26  1  0  0  0  0 
 24 27  1  0  0  0  0 
 27 28  1  0  0  0  0 
 27 29  1  0  0  0  0 
M  END
