
  CDK     1209201321

 17 17  0  0  0  0  0  0  0  0999 V2000
    2.2270    1.2860    0.0000 O   0  0  0  0  0  0  0  0  0  0  0  0
    0.9280    0.5360    0.0000 C   0  0  0  0  0  0  0  0  0  0  0  0
   -0.3710    1.2860    0.0000 C   0  0  0  0  0  0  0  0  0  0  0  0
    0.9280   -0.9640    0.0000 C   0  0  0  0  0  0  0  0  0  0  0  0
    0.5932    2.4351    0.0000 H   0  0  0  0  0  0  0  0  0  0  0  0
   -1.3352    2.4351    0.0000 H   0  0  0  0  0  0  0  0  0  0  0  0
    2.4052   -0.7035    0.0000 H   0  0  0  0  0  0  0  0  0  0  0  0
    1.4410   -2.3735    0.0000 H   0  0  0  0  0  0  0  0  0  0  0  0
   -0.3710   -1.7140    0.0000 C   0  0  0  0  0  0  0  0  0  0  0  0
   -1.3352   -2.8631    0.0000 H   0  0  0  0  0  0  0  0  0  0  0  0
    0.5932   -2.8631    0.0000 H   0  0  0  0  0  0  0  0  0  0  0  0
   -1.6700   -0.9640    0.0000 C   0  0  0  0  0  0  0  0  0  0  0  0
   -3.1472   -0.7035    0.0000 H   0  0  0  0  0  0  0  0  0  0  0  0
   -2.1830   -2.3735    0.0000 H   0  0  0  0  0  0  0  0  0  0  0  0
   -1.6700    0.5360    0.0000 C   0  0  0  0  0  0  0  0  0  0  0  0
   -2.1830    1.9455    0.0000 H   0  0  0  0  0  0  0  0  0  0  0  0
   -3.1472    0.2755    0.0000 H   0  0  0  0  0  0  0  0  0  0  0  0
  1  2  1  0  0  0  0 
  2  3  1  0  0  0  0 
  2  4  1  0  0  0  0 
  3  5  1  0  0  0  0 
  3  6  1  0  0  0  0 
  3 15  1  0  0  0  0 
  4  8  1  0  0  0  0 
  4  9  1  0  0  0  0 
  4  7  1  0  0  0  0 
  9 12  1  0  0  0  0 
  9 10  1  0  0  0  0 
  9 11  1  0  0  0  0 
 12 13  1  0  0  0  0 
 12 14  1  0  0  0  0 
 12 15  1  0  0  0  0 
 15 16  1  0  0  0  0 
 15 17  1  0  0  0  0 
M  END
