
  CDK     1209201322

 19 20  0  0  0  0  0  0  0  0999 V2000
    3.7263    1.6631    0.0000 C   0  0  0  0  0  0  0  0  0  0  0  0
    5.2053    1.4127    0.0000 H   0  0  0  0  0  0  0  0  0  0  0  0
    4.2298    3.0761    0.0000 H   0  0  0  0  0  0  0  0  0  0  0  0
    2.4222    2.4043    0.0000 H   0  0  0  0  0  0  0  0  0  0  0  0
    2.7699    0.5075    0.0000 N   0  0  0  0  0  0  0  0  0  0  0  0
    3.2925   -0.8985    0.0000 H   0  0  0  0  0  0  0  0  0  0  0  0
    1.2910    0.7580    0.0000 C   0  0  0  0  0  0  0  0  0  0  0  0
    1.7934    2.1714    0.0000 H   0  0  0  0  0  0  0  0  0  0  0  0
   -0.0140    1.4970    0.0000 C   0  0  0  0  0  0  0  0  0  0  0  0
   -0.0258    2.9970    0.0000 H   0  0  0  0  0  0  0  0  0  0  0  0
   -1.3100    0.7360    0.0000 O   0  0  0  0  0  0  0  0  0  0  0  0
   -1.2720   -0.7470    0.0000 C   0  0  0  0  0  0  0  0  0  0  0  0
   -2.5656   -1.5063    0.0000 H   0  0  0  0  0  0  0  0  0  0  0  0
    0.0040   -1.5030    0.0000 C   0  0  0  0  0  0  0  0  0  0  0  0
    0.9695   -2.6510    0.0000 H   0  0  0  0  0  0  0  0  0  0  0  0
   -0.9660   -2.6472    0.0000 H   0  0  0  0  0  0  0  0  0  0  0  0
    1.3000   -0.7420    0.0000 C   0  0  0  0  0  0  0  0  0  0  0  0
    1.8227   -2.1480    0.0000 H   0  0  0  0  0  0  0  0  0  0  0  0
    2.7755   -0.4720    0.0000 H   0  0  0  0  0  0  0  0  0  0  0  0
  1  2  1  0  0  0  0 
  1  3  1  0  0  0  0 
  1  4  1  0  0  0  0 
  1  5  1  0  0  0  0 
  5  6  1  0  0  0  0 
  5  7  1  0  0  0  0 
  7  8  1  0  0  0  0 
  7  9  1  0  0  0  0 
  7 17  1  0  0  0  0 
  9 10  1  0  0  0  0 
  9 11  1  0  0  0  0 
  9 12  1  0  0  0  0 
 11 12  1  0  0  0  0 
 12 13  1  0  0  0  0 
 12 14  1  0  0  0  0 
 14 16  1  0  0  0  0 
 14 17  1  0  0  0  0 
 14 15  1  0  0  0  0 
 17 18  1  0  0  0  0 
 17 19  1  0  0  0  0 
M  END
