
  CDK     1209201322

 23 22  0  0  0  0  0  0  0  0999 V2000
    5.5310   -1.8991    0.0000 C   0  0  0  0  0  0  0  0  0  0  0  0
    6.0440   -3.3086    0.0000 H   0  0  0  0  0  0  0  0  0  0  0  0
    4.5668   -0.7500    0.0000 H   0  0  0  0  0  0  0  0  0  0  0  0
    4.2320   -2.6491    0.0000 H   0  0  0  0  0  0  0  0  0  0  0  0
    5.1962   -0.0000    0.0000 C   0  0  0  0  0  0  0  0  0  0  0  0
    4.2320    1.1491    0.0000 H   0  0  0  0  0  0  0  0  0  0  0  0
    6.1603    1.1491    0.0000 H   0  0  0  0  0  0  0  0  0  0  0  0
    3.8971   -0.7500    0.0000 O   0  0  0  0  0  0  0  0  0  0  0  0
    2.5981   -0.0000    0.0000 C   0  0  0  0  0  3  0  0  0  0  0  0
    2.5981    1.5000    0.0000 O   0  0  0  0  0  1  0  0  0  0  0  0
    1.2990   -0.7500    0.0000 C   0  0  0  0  0  0  0  0  0  0  0  0
    0.0000    0.0000    0.0000 H   0  0  0  0  0  0  0  0  0  0  0  0
    0.3349   -1.8991    0.0000 H   0  0  0  0  0  0  0  0  0  0  0  0
    2.2632   -1.8991    0.0000 H   0  0  0  0  0  0  0  0  0  0  0  0
    6.4952   -0.7500    0.0000 C   0  0  0  0  0  0  0  0  0  0  0  0
    7.4594   -1.8991    0.0000 H   0  0  0  0  0  0  0  0  0  0  0  0
    7.7942   -0.0000    0.0000 O   0  0  0  0  0  0  0  0  0  0  0  0
    9.0933   -0.7500    0.0000 C   0  0  0  0  0  3  0  0  0  0  0  0
    9.0933   -2.2500    0.0000 O   0  0  0  0  0  1  0  0  0  0  0  0
   10.3923   -0.0000    0.0000 C   0  0  0  0  0  0  0  0  0  0  0  0
   11.6913   -0.7500    0.0000 H   0  0  0  0  0  0  0  0  0  0  0  0
   11.3565    1.1491    0.0000 H   0  0  0  0  0  0  0  0  0  0  0  0
    9.4281    1.1491    0.0000 H   0  0  0  0  0  0  0  0  0  0  0  0
  1  2  1  0  0  0  0 
  1  3  1  0  0  0  0 
  1  4  1  0  0  0  0 
  1 15  1  0  0  0  0 
  5  8  1  0  0  0  0 
  5  7  1  0  0  0  0 
  5  6  1  0  0  0  0 
  5 15  1  0  0  0  0 
  8  9  1  0  0  0  0 
  9 10  1  0  0  0  0 
  9 11  1  0  0  0  0 
 11 12  1  0  0  0  0 
 11 13  1  0  0  0  0 
 11 14  1  0  0  0  0 
 15 16  1  0  0  0  0 
 15 17  1  0  0  0  0 
 17 18  1  0  0  0  0 
 18 19  1  0  0  0  0 
 18 20  1  0  0  0  0 
 20 21  1  0  0  0  0 
 20 22  1  0  0  0  0 
 20 23  1  0  0  0  0 
M  END
