
  CDK     1209201322

 22 21  0  0  0  0  0  0  0  0999 V2000
    3.5623    1.1491    0.0000 H   0  0  0  0  0  0  0  0  0  0  0  0
    1.6339    1.1491    0.0000 H   0  0  0  0  0  0  0  0  0  0  0  0
    0.0000    0.0000    0.0000 H   0  0  0  0  0  0  0  0  0  0  0  0
    2.5981   -0.0000    0.0000 C   0  0  0  0  0  0  0  0  0  0  0  0
    1.2990   -0.7500    0.0000 O   0  0  0  0  0  0  0  0  0  0  0  0
    2.9329   -1.8991    0.0000 H   0  0  0  0  0  0  0  0  0  0  0  0
    4.8613   -1.8991    0.0000 H   0  0  0  0  0  0  0  0  0  0  0  0
    3.8971   -0.7500    0.0000 C   0  0  0  0  0  0  0  0  0  0  0  0
    6.1603    1.1491    0.0000 H   0  0  0  0  0  0  0  0  0  0  0  0
    4.2320    1.1491    0.0000 H   0  0  0  0  0  0  0  0  0  0  0  0
    5.1962   -0.0000    0.0000 C   0  0  0  0  0  0  0  0  0  0  0  0
    5.5310   -1.8991    0.0000 H   0  0  0  0  0  0  0  0  0  0  0  0
    7.4594   -1.8991    0.0000 H   0  0  0  0  0  0  0  0  0  0  0  0
    6.4952   -0.7500    0.0000 C   0  0  0  0  0  0  0  0  0  0  0  0
    8.7584    1.1491    0.0000 H   0  0  0  0  0  0  0  0  0  0  0  0
    6.8300    1.1491    0.0000 H   0  0  0  0  0  0  0  0  0  0  0  0
    7.7942   -0.0000    0.0000 C   0  0  0  0  0  0  0  0  0  0  0  0
    8.1291   -1.8991    0.0000 H   0  0  0  0  0  0  0  0  0  0  0  0
   10.0574   -1.8991    0.0000 H   0  0  0  0  0  0  0  0  0  0  0  0
   11.6913   -0.7500    0.0000 H   0  0  0  0  0  0  0  0  0  0  0  0
    9.0933   -0.7500    0.0000 C   0  0  0  0  0  0  0  0  0  0  0  0
   10.3923   -0.0000    0.0000 O   0  0  0  0  0  0  0  0  0  0  0  0
  1  4  1  0  0  0  0 
  2  4  1  0  0  0  0 
  3  5  1  0  0  0  0 
  4  8  1  0  0  0  0 
  4  5  1  0  0  0  0 
  6  8  1  0  0  0  0 
  7  8  1  0  0  0  0 
  8 11  1  0  0  0  0 
  9 11  1  0  0  0  0 
 10 11  1  0  0  0  0 
 11 14  1  0  0  0  0 
 12 14  1  0  0  0  0 
 13 14  1  0  0  0  0 
 14 17  1  0  0  0  0 
 15 17  1  0  0  0  0 
 16 17  1  0  0  0  0 
 17 21  1  0  0  0  0 
 18 21  1  0  0  0  0 
 19 21  1  0  0  0  0 
 20 22  1  0  0  0  0 
 21 22  1  0  0  0  0 
M  END
