
  CDK     1209201322

 29 30  0  0  0  0  0  0  0  0999 V2000
   -2.3060    0.7500    0.0000 C   0  0  0  0  0  0  0  0  0  0  0  0
   -2.8187    2.1596    0.0000 H   0  0  0  0  0  0  0  0  0  0  0  0
   -3.7832    0.4897    0.0000 H   0  0  0  0  0  0  0  0  0  0  0  0
   -2.3060   -0.7500    0.0000 C   0  0  0  0  0  0  0  0  0  0  0  0
   -3.7832   -0.4897    0.0000 H   0  0  0  0  0  0  0  0  0  0  0  0
   -2.8187   -2.1596    0.0000 H   0  0  0  0  0  0  0  0  0  0  0  0
   -1.0060   -1.5000    0.0000 C   0  0  0  0  0  0  0  0  0  0  0  0
   -1.9698   -2.6494    0.0000 H   0  0  0  0  0  0  0  0  0  0  0  0
   -0.0414   -2.6487    0.0000 H   0  0  0  0  0  0  0  0  0  0  0  0
    0.2920   -0.7500    0.0000 C   0  0  0  0  0  0  0  0  0  0  0  0
    0.2920    0.7500    0.0000 C   0  0  0  0  0  0  0  0  0  0  0  0
   -1.0060    1.5000    0.0000 C   0  0  0  0  0  0  0  0  0  0  0  0
   -0.0414    2.6487    0.0000 H   0  0  0  0  0  0  0  0  0  0  0  0
   -1.9698    2.6494    0.0000 H   0  0  0  0  0  0  0  0  0  0  0  0
    2.6010    0.0000    0.0000 N   0  0  0  0  0  0  0  0  0  0  0  0
    4.1010    0.0000    0.0000 C   0  0  0  0  0  0  0  0  0  0  0  0
    4.8510    1.2990    0.0000 H   0  0  0  0  0  0  0  0  0  0  0  0
    3.8405   -1.4772    0.0000 H   0  0  0  0  0  0  0  0  0  0  0  0
    5.5105   -0.5130    0.0000 H   0  0  0  0  0  0  0  0  0  0  0  0
    1.7190   -1.2130    0.0000 C   0  0  0  0  0  0  0  0  0  0  0  0
    1.7190    1.2130    0.0000 N   0  0  0  0  0  0  0  0  0  0  0  0
    2.1826   -2.6396    0.0000 C   0  0  0  0  0  3  0  0  0  0  0  0
    1.1789   -3.7543    0.0000 O   0  0  0  0  0  1  0  0  0  0  0  0
    3.6498   -2.9514    0.0000 N   0  0  0  0  0  0  0  0  0  0  0  0
    4.1133   -4.3780    0.0000 C   0  0  0  0  0  0  0  0  0  0  0  0
    5.5806   -4.6898    0.0000 H   0  0  0  0  0  0  0  0  0  0  0  0
    2.6279   -4.5868    0.0000 H   0  0  0  0  0  0  0  0  0  0  0  0
    4.0610   -5.8771    0.0000 H   0  0  0  0  0  0  0  0  0  0  0  0
    4.6535   -1.8367    0.0000 H   0  0  0  0  0  0  0  0  0  0  0  0
  1 12  1  0  0  0  0 
  1  2  1  0  0  0  0 
  1  3  1  0  0  0  0 
  1  4  1  0  0  0  0 
  4  5  1  0  0  0  0 
  4  6  1  0  0  0  0 
  4  7  1  0  0  0  0 
  7  8  1  0  0  0  0 
  7  9  1  0  0  0  0 
  7 10  1  0  0  0  0 
 10 11  1  0  0  0  0 
 10 20  1  0  0  0  0 
 11 12  1  0  0  0  0 
 11 21  1  0  0  0  0 
 12 13  1  0  0  0  0 
 12 14  1  0  0  0  0 
 15 16  1  0  0  0  0 
 15 20  1  0  0  0  0 
 15 21  1  0  0  0  0 
 16 17  1  0  0  0  0 
 16 18  1  0  0  0  0 
 16 19  1  0  0  0  0 
 20 22  1  0  0  0  0 
 22 24  1  0  0  0  0 
 22 23  1  0  0  0  0 
 24 25  1  0  0  0  0 
 24 29  1  0  0  0  0 
 25 26  1  0  0  0  0 
 25 27  1  0  0  0  0 
 25 28  1  0  0  0  0 
M  END
