
  CDK     1209201321

 18 18  0  0  0  0  0  0  0  0999 V2000
   -0.4270    1.0830    0.0000 C   0  0  0  0  0  0  0  0  0  0  0  0
    0.5711    2.2027    0.0000 H   0  0  0  0  0  0  0  0  0  0  0  0
   -1.4370    2.1920    0.0000 H   0  0  0  0  0  0  0  0  0  0  0  0
   -1.6510    0.1820    0.0000 C   0  0  0  0  0  0  0  0  0  0  0  0
   -2.4190    1.4705    0.0000 H   0  0  0  0  0  0  0  0  0  0  0  0
   -3.0079   -0.4575    0.0000 H   0  0  0  0  0  0  0  0  0  0  0  0
   -1.1480   -1.2250    0.0000 C   0  0  0  0  0  0  0  0  0  0  0  0
   -2.6078   -1.5699    0.0000 H   0  0  0  0  0  0  0  0  0  0  0  0
   -0.9673   -2.7141    0.0000 H   0  0  0  0  0  0  0  0  0  0  0  0
    0.3360   -1.2110    0.0000 C   0  0  0  0  0  0  0  0  0  0  0  0
    0.1907   -2.7039    0.0000 H   0  0  0  0  0  0  0  0  0  0  0  0
    1.8051   -1.5140    0.0000 H   0  0  0  0  0  0  0  0  0  0  0  0
    0.7900    0.2070    0.0000 C   0  0  0  0  0  0  0  0  0  0  0  0
    2.1630   -0.3971    0.0000 H   0  0  0  0  0  0  0  0  0  0  0  0
    1.5343    1.5093    0.0000 C   0  0  0  0  0  0  0  0  0  0  0  0
    3.0343    1.5159    0.0000 H   0  0  0  0  0  0  0  0  0  0  0  0
    1.7883    2.9877    0.0000 H   0  0  0  0  0  0  0  0  0  0  0  0
    0.1225    2.0162    0.0000 H   0  0  0  0  0  0  0  0  0  0  0  0
  1  2  1  0  0  0  0 
  1  3  1  0  0  0  0 
  1  4  1  0  0  0  0 
  1 13  1  0  0  0  0 
  4  5  1  0  0  0  0 
  4  6  1  0  0  0  0 
  4  7  1  0  0  0  0 
  7  8  1  0  0  0  0 
  7  9  1  0  0  0  0 
  7 10  1  0  0  0  0 
 10 11  1  0  0  0  0 
 10 12  1  0  0  0  0 
 10 13  1  0  0  0  0 
 13 14  1  0  0  0  0 
 13 15  1  0  0  0  0 
 15 16  1  0  0  0  0 
 15 17  1  0  0  0  0 
 15 18  1  0  0  0  0 
M  END
