
  CDK     1209201322

 29 29  0  0  0  0  0  0  0  0999 V2000
   -0.5200    0.9400    0.0000 C   0  0  0  0  0  0  0  0  0  0  0  0
   -1.8190    0.1900    0.0000 C   0  0  0  0  0  0  0  0  0  0  0  0
   -2.3320    1.5995    0.0000 H   0  0  0  0  0  0  0  0  0  0  0  0
   -3.2962   -0.0705    0.0000 H   0  0  0  0  0  0  0  0  0  0  0  0
   -1.8190   -1.3100    0.0000 C   0  0  0  0  0  0  0  0  0  0  0  0
   -3.2962   -1.0495    0.0000 H   0  0  0  0  0  0  0  0  0  0  0  0
   -2.3320   -2.7195    0.0000 H   0  0  0  0  0  0  0  0  0  0  0  0
   -0.5200   -2.0600    0.0000 C   0  0  0  0  0  0  0  0  0  0  0  0
   -1.4842   -3.2091    0.0000 H   0  0  0  0  0  0  0  0  0  0  0  0
    0.4442   -3.2091    0.0000 H   0  0  0  0  0  0  0  0  0  0  0  0
    0.7790   -1.3100    0.0000 C   0  0  0  0  0  0  0  0  0  0  0  0
    0.7790    0.1900    0.0000 C   0  0  0  0  0  0  0  0  0  0  0  0
    2.0780    0.9400    0.0000 C   0  0  0  0  0  3  0  0  0  0  0  0
    2.0781    2.4400    0.0000 H   0  0  0  0  0  0  0  0  0  0  0  0
    3.3771    0.1900    0.0000 C   0  0  0  0  0  3  0  0  0  0  0  0
    4.6761    0.9400    0.0000 H   0  0  0  0  0  0  0  0  0  0  0  0
    3.3771   -1.3100    0.0000 H   0  0  0  0  0  0  0  0  0  0  0  0
    0.4442    2.0891    0.0000 C   0  0  0  0  0  0  0  0  0  0  0  0
   -0.0688    3.4986    0.0000 H   0  0  0  0  0  0  0  0  0  0  0  0
    1.4084    0.9400    0.0000 H   0  0  0  0  0  0  0  0  0  0  0  0
    1.7432    2.8391    0.0000 H   0  0  0  0  0  0  0  0  0  0  0  0
   -1.4842    2.0891    0.0000 C   0  0  0  0  0  0  0  0  0  0  0  0
   -0.9712    3.4986    0.0000 H   0  0  0  0  0  0  0  0  0  0  0  0
   -2.7832    2.8391    0.0000 H   0  0  0  0  0  0  0  0  0  0  0  0
   -2.4484    0.9400    0.0000 H   0  0  0  0  0  0  0  0  0  0  0  0
    2.0780   -2.0600    0.0000 C   0  0  0  0  0  0  0  0  0  0  0  0
    2.0781   -3.5600    0.0000 H   0  0  0  0  0  0  0  0  0  0  0  0
    3.5553   -2.3205    0.0000 H   0  0  0  0  0  0  0  0  0  0  0  0
    2.5911   -0.6504    0.0000 H   0  0  0  0  0  0  0  0  0  0  0  0
  1  2  1  0  0  0  0 
  1 12  1  0  0  0  0 
  1 18  1  0  0  0  0 
  1 22  1  0  0  0  0 
  2  3  1  0  0  0  0 
  2  4  1  0  0  0  0 
  2  5  1  0  0  0  0 
  5  8  1  0  0  0  0 
  5  6  1  0  0  0  0 
  5  7  1  0  0  0  0 
  8  9  1  0  0  0  0 
  8 10  1  0  0  0  0 
  8 11  1  0  0  0  0 
 11 26  1  0  0  0  0 
 11 12  1  0  0  0  0 
 12 13  1  0  0  0  0 
 13 14  1  0  0  0  0 
 13 15  1  0  0  0  0 
 15 16  1  0  0  0  0 
 15 17  1  0  0  0  0 
 18 19  1  0  0  0  0 
 18 20  1  0  0  0  0 
 18 21  1  0  0  0  0 
 22 24  1  0  0  0  0 
 22 25  1  0  0  0  0 
 22 23  1  0  0  0  0 
 26 27  1  0  0  0  0 
 26 28  1  0  0  0  0 
 26 29  1  0  0  0  0 
M  END
