
  CDK     1209201322

 31 32  0  0  0  0  0  0  0  0999 V2000
   -0.0000   -1.2760    0.0000 O   0  0  0  0  0  0  0  0  0  0  0  0
   -1.2130   -0.3940    0.0000 C   0  0  0  0  0  0  0  0  0  0  0  0
   -1.9632   -1.6929    0.0000 H   0  0  0  0  0  0  0  0  0  0  0  0
    1.2140   -0.3940    0.0000 C   0  0  0  0  0  0  0  0  0  0  0  0
    1.9642   -1.6929    0.0000 H   0  0  0  0  0  0  0  0  0  0  0  0
    0.7500    1.0320    0.0000 C   0  0  0  0  0  0  0  0  0  0  0  0
    0.5930    2.5238    0.0000 H   0  0  0  0  0  0  0  0  0  0  0  0
    2.2171    1.3443    0.0000 H   0  0  0  0  0  0  0  0  0  0  0  0
    2.5841    0.2165    0.0000 N   0  0  0  0  0  0  0  0  0  0  0  0
    2.7405    1.7083    0.0000 C   0  0  0  0  0  0  0  0  0  0  0  0
    1.5268    2.5897    0.0000 H   0  0  0  0  0  0  0  0  0  0  0  0
    3.7979   -0.6649    0.0000 C   0  0  0  0  0  0  0  0  0  0  0  0
    3.6415   -2.1567    0.0000 O   0  0  0  0  0  0  0  0  0  0  0  0
    5.1681   -0.0544    0.0000 N   0  0  0  0  0  0  0  0  0  0  0  0
    6.3818   -0.9357    0.0000 H   0  0  0  0  0  0  0  0  0  0  0  0
    5.3244    1.4375    0.0000 C   0  0  0  0  0  0  0  0  0  0  0  0
    6.6946    2.0479    0.0000 O   0  0  0  0  0  0  0  0  0  0  0  0
    4.1107    2.3188    0.0000 C   0  0  0  0  0  0  0  0  0  0  0  0
    4.2671    3.8106    0.0000 C   0  0  0  0  0  0  0  0  0  0  0  0
    5.6372    4.4211    0.0000 H   0  0  0  0  0  0  0  0  0  0  0  0
    3.9038    5.2660    0.0000 H   0  0  0  0  0  0  0  0  0  0  0  0
    2.7707    3.7056    0.0000 H   0  0  0  0  0  0  0  0  0  0  0  0
   -0.5933    2.5238    0.0000 H   0  0  0  0  0  0  0  0  0  0  0  0
   -0.7500    1.0320    0.0000 C   0  0  0  0  0  0  0  0  0  0  0  0
   -2.2173    1.3437    0.0000 O   0  0  0  0  0  0  0  0  0  0  0  0
   -3.2208    0.2288    0.0000 H   0  0  0  0  0  0  0  0  0  0  0  0
   -2.5833    0.2161    0.0000 C   0  0  0  0  0  0  0  0  0  0  0  0
   -1.7446    1.4597    0.0000 H   0  0  0  0  0  0  0  0  0  0  0  0
   -3.6624    1.2581    0.0000 H   0  0  0  0  0  0  0  0  0  0  0  0
   -3.7968   -0.6656    0.0000 O   0  0  0  0  0  0  0  0  0  0  0  0
   -5.1672   -0.0555    0.0000 H   0  0  0  0  0  0  0  0  0  0  0  0
  1  2  1  0  0  0  0 
  1  4  1  0  0  0  0 
  2 24  1  0  0  0  0 
  2 27  1  0  0  0  0 
  2  3  1  0  0  0  0 
  4  5  1  0  0  0  0 
  4  6  1  0  0  0  0 
  4  9  1  0  0  0  0 
  6 24  1  0  0  0  0 
  6  8  1  0  0  0  0 
  6  7  1  0  0  0  0 
  9 12  1  0  0  0  0 
  9 10  1  0  0  0  0 
 10 18  1  0  0  0  0 
 10 11  1  0  0  0  0 
 12 13  1  0  0  0  0 
 12 14  1  0  0  0  0 
 14 16  1  0  0  0  0 
 14 15  1  0  0  0  0 
 16 17  1  0  0  0  0 
 16 18  1  0  0  0  0 
 18 19  1  0  0  0  0 
 19 20  1  0  0  0  0 
 19 21  1  0  0  0  0 
 19 22  1  0  0  0  0 
 23 24  1  0  0  0  0 
 24 25  1  0  0  0  0 
 25 26  1  0  0  0  0 
 27 28  1  0  0  0  0 
 27 29  1  0  0  0  0 
 27 30  1  0  0  0  0 
 30 31  1  0  0  0  0 
M  END
