
  CDK     1209201321

 14 14  0  0  0  0  0  0  0  0999 V2000
    0.0000   -1.2760    0.0000 N   0  0  0  0  0  0  0  0  0  0  0  0
    0.0003   -2.7760    0.0000 H   0  0  0  0  0  0  0  0  0  0  0  0
    1.2130   -0.3940    0.0000 C   0  0  0  0  0  0  0  0  0  0  0  0
    1.9632   -1.6929    0.0000 H   0  0  0  0  0  0  0  0  0  0  0  0
    2.5833    0.2161    0.0000 H   0  0  0  0  0  0  0  0  0  0  0  0
    0.7500    1.0320    0.0000 C   0  0  0  0  0  0  0  0  0  0  0  0
    0.5933    2.5238    0.0000 H   0  0  0  0  0  0  0  0  0  0  0  0
    2.2173    1.3437    0.0000 H   0  0  0  0  0  0  0  0  0  0  0  0
   -0.7500    1.0320    0.0000 C   0  0  0  0  0  0  0  0  0  0  0  0
   -0.5930    2.5238    0.0000 H   0  0  0  0  0  0  0  0  0  0  0  0
   -2.2171    1.3443    0.0000 H   0  0  0  0  0  0  0  0  0  0  0  0
   -1.2140   -0.3940    0.0000 C   0  0  0  0  0  0  0  0  0  0  0  0
   -2.5841    0.2165    0.0000 H   0  0  0  0  0  0  0  0  0  0  0  0
   -1.9642   -1.6929    0.0000 H   0  0  0  0  0  0  0  0  0  0  0  0
  1  2  1  0  0  0  0 
  1  3  1  0  0  0  0 
  1 12  1  0  0  0  0 
  3  4  1  0  0  0  0 
  3  5  1  0  0  0  0 
  3  6  1  0  0  0  0 
  6  8  1  0  0  0  0 
  6  9  1  0  0  0  0 
  6  7  1  0  0  0  0 
  9 10  1  0  0  0  0 
  9 11  1  0  0  0  0 
  9 12  1  0  0  0  0 
 12 13  1  0  0  0  0 
 12 14  1  0  0  0  0 
M  END
