
  CDK     1209201322

 20 20  0  0  0  0  0  0  0  0999 V2000
   -0.4190    1.0850    0.0000 O   0  0  0  0  0  0  0  0  0  0  0  0
   -1.6320    0.2040    0.0000 C   0  0  0  0  0  0  0  0  0  0  0  0
   -2.3817    1.5032    0.0000 H   0  0  0  0  0  0  0  0  0  0  0  0
   -3.0025   -0.4056    0.0000 H   0  0  0  0  0  0  0  0  0  0  0  0
    0.7950    0.2040    0.0000 C   0  0  0  0  0  0  0  0  0  0  0  0
    1.5446    1.5033    0.0000 H   0  0  0  0  0  0  0  0  0  0  0  0
   -1.1690   -1.2230    0.0000 C   0  0  0  0  0  0  0  0  0  0  0  0
   -2.6363   -1.5345    0.0000 H   0  0  0  0  0  0  0  0  0  0  0  0
   -1.0124   -2.7148    0.0000 H   0  0  0  0  0  0  0  0  0  0  0  0
    0.3310   -1.2230    0.0000 C   0  0  0  0  0  0  0  0  0  0  0  0
    0.1741   -2.7148    0.0000 H   0  0  0  0  0  0  0  0  0  0  0  0
    1.7982   -1.5351    0.0000 H   0  0  0  0  0  0  0  0  0  0  0  0
    2.1653   -0.4060    0.0000 C   0  0  0  0  0  0  0  0  0  0  0  0
    1.3266   -1.6496    0.0000 H   0  0  0  0  0  0  0  0  0  0  0  0
    3.2444   -1.4480    0.0000 H   0  0  0  0  0  0  0  0  0  0  0  0
    3.3788    0.4757    0.0000 O   0  0  0  0  0  0  0  0  0  0  0  0
    4.7492   -0.1344    0.0000 P   0  0  0  0  0  4  0  0  0  0  0  0
    5.9627    0.7474    0.0000 O   0  0  0  0  0  1  0  0  0  0  0  0
    3.9104   -1.3780    0.0000 O   0  0  0  0  0  1  0  0  0  0  0  0
    5.8282   -1.1763    0.0000 O   0  0  0  0  0  0  0  0  0  0  0  0
  1  2  1  0  0  0  0 
  1  5  1  0  0  0  0 
  2  3  1  0  0  0  0 
  2  4  1  0  0  0  0 
  2  7  1  0  0  0  0 
  5 10  1  0  0  0  0 
  5 13  1  0  0  0  0 
  5  6  1  0  0  0  0 
  7  8  1  0  0  0  0 
  7  9  1  0  0  0  0 
  7 10  1  0  0  0  0 
 10 11  1  0  0  0  0 
 10 12  1  0  0  0  0 
 13 16  1  0  0  0  0 
 13 14  1  0  0  0  0 
 13 15  1  0  0  0  0 
 16 17  1  0  0  0  0 
 17 18  1  0  0  0  0 
 17 19  1  0  0  0  0 
 17 20  1  0  0  0  0 
M  END
