
  CDK     1209201322

 26 27  0  0  0  0  0  0  0  0999 V2000
   -0.0000   -1.2760    0.0000 O   0  0  0  0  0  0  0  0  0  0  0  0
   -1.2130   -0.3940    0.0000 C   0  0  0  0  0  0  0  0  0  0  0  0
   -2.5833    0.2161    0.0000 H   0  0  0  0  0  0  0  0  0  0  0  0
    1.2140   -0.3940    0.0000 C   0  0  0  0  0  0  0  0  0  0  0  0
    1.9642   -1.6929    0.0000 H   0  0  0  0  0  0  0  0  0  0  0  0
    0.7500    1.0320    0.0000 C   0  0  0  0  0  0  0  0  0  0  0  0
    0.5930    2.5238    0.0000 H   0  0  0  0  0  0  0  0  0  0  0  0
    2.2171    1.3443    0.0000 H   0  0  0  0  0  0  0  0  0  0  0  0
    3.8834   -0.5332    0.0000 C   0  0  0  0  0  0  0  0  0  0  0  0
    4.0406   -2.0249    0.0000 H   0  0  0  0  0  0  0  0  0  0  0  0
    4.9978    0.4708    0.0000 C   0  0  0  0  0  0  0  0  0  0  0  0
    6.4651    0.1594    0.0000 H   0  0  0  0  0  0  0  0  0  0  0  0
    2.5841    0.2165    0.0000 N   0  0  0  0  0  0  0  0  0  0  0  0
    2.8956    1.6838    0.0000 C   0  0  0  0  0  0  0  0  0  0  0  0
    1.8916    2.7982    0.0000 H   0  0  0  0  0  0  0  0  0  0  0  0
    4.3873    1.8410    0.0000 N   0  0  0  0  0  0  0  0  0  0  0  0
   -0.5933    2.5238    0.0000 H   0  0  0  0  0  0  0  0  0  0  0  0
   -0.7500    1.0320    0.0000 C   0  0  0  0  0  0  0  0  0  0  0  0
   -2.2173    1.3437    0.0000 N   0  0  0  0  0  0  0  0  0  0  0  0
   -2.6810    2.7702    0.0000 H   0  0  0  0  0  0  0  0  0  0  0  0
   -3.2208    0.2288    0.0000 H   0  0  0  0  0  0  0  0  0  0  0  0
   -1.9632   -1.6929    0.0000 C   0  0  0  0  0  0  0  0  0  0  0  0
   -0.5538   -2.2062    0.0000 H   0  0  0  0  0  0  0  0  0  0  0  0
   -2.2240   -3.1701    0.0000 H   0  0  0  0  0  0  0  0  0  0  0  0
   -3.4632   -1.6926    0.0000 O   0  0  0  0  0  0  0  0  0  0  0  0
   -4.2135   -2.9915    0.0000 H   0  0  0  0  0  0  0  0  0  0  0  0
  1  2  1  0  0  0  0 
  1  4  1  0  0  0  0 
  2 18  1  0  0  0  0 
  2  3  1  0  0  0  0 
  2 22  1  0  0  0  0 
  4  5  1  0  0  0  0 
  4  6  1  0  0  0  0 
  4 13  1  0  0  0  0 
  6  8  1  0  0  0  0 
  6 18  1  0  0  0  0 
  6  7  1  0  0  0  0 
  9 10  1  0  0  0  0 
  9 11  1  0  0  0  0 
  9 13  1  0  0  0  0 
 11 16  1  0  0  0  0 
 11 12  1  0  0  0  0 
 13 14  1  0  0  0  0 
 14 16  1  0  0  0  0 
 14 15  1  0  0  0  0 
 17 18  1  0  0  0  0 
 18 19  1  0  0  0  0 
 19 20  1  0  0  0  0 
 19 21  1  0  0  0  0 
 22 24  1  0  0  0  0 
 22 25  1  0  0  0  0 
 22 23  1  0  0  0  0 
 25 26  1  0  0  0  0 
M  END
