
  CDK     1209201322

 27 28  0  0  0  0  0  0  0  0999 V2000
   -2.3060    0.7500    0.0000 C   0  0  0  0  0  0  0  0  0  0  0  0
   -2.8190    2.1595    0.0000 H   0  0  0  0  0  0  0  0  0  0  0  0
   -3.7832    0.4895    0.0000 H   0  0  0  0  0  0  0  0  0  0  0  0
   -2.3060   -0.7500    0.0000 C   0  0  0  0  0  0  0  0  0  0  0  0
   -3.7832   -0.4895    0.0000 H   0  0  0  0  0  0  0  0  0  0  0  0
   -2.8190   -2.1595    0.0000 H   0  0  0  0  0  0  0  0  0  0  0  0
   -1.0070   -1.5000    0.0000 C   0  0  0  0  0  0  0  0  0  0  0  0
   -1.9713   -2.6490    0.0000 H   0  0  0  0  0  0  0  0  0  0  0  0
   -0.0431   -2.6493    0.0000 H   0  0  0  0  0  0  0  0  0  0  0  0
    0.2930   -0.7500    0.0000 C   0  0  0  0  0  0  0  0  0  0  0  0
    0.2930    0.7500    0.0000 C   0  0  0  0  0  0  0  0  0  0  0  0
   -1.0070    1.5000    0.0000 C   0  0  0  0  0  0  0  0  0  0  0  0
   -0.0431    2.6493    0.0000 H   0  0  0  0  0  0  0  0  0  0  0  0
   -1.9713    2.6490    0.0000 H   0  0  0  0  0  0  0  0  0  0  0  0
    1.7190    1.2130    0.0000 C   0  0  0  0  0  0  0  0  0  0  0  0
    2.1824    2.6396    0.0000 H   0  0  0  0  0  0  0  0  0  0  0  0
    2.6010   -0.0000    0.0000 C   0  0  0  0  0  0  0  0  0  0  0  0
    4.1010    0.0003    0.0000 H   0  0  0  0  0  0  0  0  0  0  0  0
    1.7190   -1.2140    0.0000 N   0  0  0  0  0  0  0  0  0  0  0  0
    2.1822   -2.6407    0.0000 C   0  0  0  0  0  3  0  0  0  0  0  0
    1.1783   -3.7552    0.0000 O   0  0  0  0  0  1  0  0  0  0  0  0
    3.6494   -2.9528    0.0000 N   0  0  0  0  0  0  0  0  0  0  0  0
    4.1126   -4.3795    0.0000 C   0  0  0  0  0  0  0  0  0  0  0  0
    5.5798   -4.6917    0.0000 H   0  0  0  0  0  0  0  0  0  0  0  0
    2.6272   -4.5880    0.0000 H   0  0  0  0  0  0  0  0  0  0  0  0
    4.0600   -5.8786    0.0000 H   0  0  0  0  0  0  0  0  0  0  0  0
    4.6533   -1.8383    0.0000 H   0  0  0  0  0  0  0  0  0  0  0  0
  1 12  1  0  0  0  0 
  1  2  1  0  0  0  0 
  1  3  1  0  0  0  0 
  1  4  1  0  0  0  0 
  4  5  1  0  0  0  0 
  4  6  1  0  0  0  0 
  4  7  1  0  0  0  0 
  7  8  1  0  0  0  0 
  7  9  1  0  0  0  0 
  7 10  1  0  0  0  0 
 10 19  1  0  0  0  0 
 10 11  1  0  0  0  0 
 11 12  1  0  0  0  0 
 11 15  1  0  0  0  0 
 12 13  1  0  0  0  0 
 12 14  1  0  0  0  0 
 15 16  1  0  0  0  0 
 15 17  1  0  0  0  0 
 17 18  1  0  0  0  0 
 17 19  1  0  0  0  0 
 19 20  1  0  0  0  0 
 20 21  1  0  0  0  0 
 20 22  1  0  0  0  0 
 22 27  1  0  0  0  0 
 22 23  1  0  0  0  0 
 23 24  1  0  0  0  0 
 23 25  1  0  0  0  0 
 23 26  1  0  0  0  0 
M  END
