
  MJ202100                      

 27 26  0  0  0  0  0  0  0  0999 V2000
   -4.6205    0.8259    0.0000 C   0  0  0  0  0  0  0  0  0  0  0  0
   -4.2849    1.5795    0.0000 C   0  0  0  0  0  0  0  0  0  0  0  0
   -3.4645    1.4933    0.0000 C   0  0  0  0  0  0  0  0  0  0  0  0
   -3.1289    2.2470    0.0000 C   0  0  0  0  0  0  0  0  0  0  0  0
   -2.3219    2.4185    0.0000 C   0  0  0  0  0  0  0  0  0  0  0  0
   -1.9864    3.1722    0.0000 C   0  0  0  0  0  0  0  0  0  0  0  0
   -1.1794    3.3437    0.0000 C   0  0  0  0  0  0  0  0  0  0  0  0
   -0.8438    4.0974    0.0000 C   0  0  0  0  0  0  0  0  0  0  0  0
   -0.0369    3.9258    0.0000 O   0  0  0  0  0  0  0  0  0  0  0  0
   -5.3742    1.1614    0.0000 H   0  0  0  0  0  0  0  0  0  0  0  0
   -4.9561    0.0722    0.0000 H   0  0  0  0  0  0  0  0  0  0  0  0
   -3.8668    0.4903    0.0000 H   0  0  0  0  0  0  0  0  0  0  0  0
   -4.9951    1.9995    0.0000 H   0  0  0  0  0  0  0  0  0  0  0  0
   -4.2936    2.4045    0.0000 H   0  0  0  0  0  0  0  0  0  0  0  0
   -3.4558    0.6683    0.0000 H   0  0  0  0  0  0  0  0  0  0  0  0
   -2.7543    1.0733    0.0000 H   0  0  0  0  0  0  0  0  0  0  0  0
   -3.8843    2.5786    0.0000 H   0  0  0  0  0  0  0  0  0  0  0  0
   -3.2962    3.0548    0.0000 H   0  0  0  0  0  0  0  0  0  0  0  0
   -2.1546    1.6106    0.0000 H   0  0  0  0  0  0  0  0  0  0  0  0
   -1.5665    2.0869    0.0000 H   0  0  0  0  0  0  0  0  0  0  0  0
   -2.7418    3.5038    0.0000 H   0  0  0  0  0  0  0  0  0  0  0  0
   -2.1537    3.9800    0.0000 H   0  0  0  0  0  0  0  0  0  0  0  0
   -1.0121    2.5358    0.0000 H   0  0  0  0  0  0  0  0  0  0  0  0
   -0.4240    3.0121    0.0000 H   0  0  0  0  0  0  0  0  0  0  0  0
   -1.5365    4.5455    0.0000 H   0  0  0  0  0  0  0  0  0  0  0  0
   -0.7992    4.9211    0.0000 H   0  0  0  0  0  0  0  0  0  0  0  0
    0.2180    3.1412    0.0000 H   0  0  0  0  0  0  0  0  0  0  0  0
  1  2  1  0  0  0  0
  2  3  1  0  0  0  0
  3  4  1  0  0  0  0
  4  5  1  0  0  0  0
  5  6  1  0  0  0  0
  6  7  1  0  0  0  0
  7  8  1  0  0  0  0
  8  9  1  0  0  0  0
  1 10  1  0  0  0  0
  1 11  1  0  0  0  0
  1 12  1  0  0  0  0
  2 13  1  0  0  0  0
  2 14  1  0  0  0  0
  3 15  1  0  0  0  0
  3 16  1  0  0  0  0
  4 17  1  0  0  0  0
  4 18  1  0  0  0  0
  5 19  1  0  0  0  0
  5 20  1  0  0  0  0
  6 21  1  0  0  0  0
  6 22  1  0  0  0  0
  7 23  1  0  0  0  0
  7 24  1  0  0  0  0
  8 25  1  0  0  0  0
  8 26  1  0  0  0  0
  9 27  1  0  0  0  0
M  END
