@<TRIPOS>MOLECULE
oco/input_hetb.pdb
 27 26 0 0 0
SMALL
GASTEIGER

@<TRIPOS>ATOM
      1  C1        55.2250   36.6250   92.0200 C.3   6758  OCO6758     0.0442
      2  H11       56.3180   36.5350   92.2260 H     6758  OCO6758     0.0557
      3  H12       54.6910   35.7590   92.4780 H     6758  OCO6758     0.0557
      4  O1        54.9940   36.6490   90.6080 O.3   6758  OCO6758    -0.3950
      5  HO1       55.3370   35.8160   90.2540 H     6758  OCO6758     0.2094
      6  C2        54.7020   37.9200   92.6340 C.3   6758  OCO6758    -0.0297
      7  H21       53.6100   38.0230   92.4070 H     6758  OCO6758     0.0287
      8  H22       55.2190   38.7910   92.1570 H     6758  OCO6758     0.0287
      9  C3        54.9090   37.9780   94.1490 C.3   6758  OCO6758    -0.0510
     10  H31       56.0000   37.8740   94.3660 H     6758  OCO6758     0.0266
     11  H32       54.3910   37.1060   94.6160 H     6758  OCO6758     0.0266
     12  C4        54.3910   39.2630   94.7630 C.3   6758  OCO6758    -0.0530
     13  H41       53.3010   39.3670   94.5460 H     6758  OCO6758     0.0265
     14  H42       54.9090   40.1350   94.2960 H     6758  OCO6758     0.0265
     15  C5        54.6070   39.3030   96.2770 C.3   6758  OCO6758    -0.0531
     16  H51       55.6970   39.2000   96.4940 H     6758  OCO6758     0.0265
     17  H52       54.0880   38.4320   96.7440 H     6758  OCO6758     0.0265
     18  C6        54.0860   40.5980   96.9010 C.3   6758  OCO6758    -0.0533
     19  H61       53.0000   40.6920   96.6830 H     6758  OCO6758     0.0265
     20  H62       54.6080   41.4600   96.4340 H     6758  OCO6758     0.0265
     21  C7        54.3020   40.6370   98.4150 C.3   6758  OCO6758    -0.0559
     22  H71       55.3920   40.5340   98.6320 H     6758  OCO6758     0.0263
     23  H72       53.7830   39.7660   98.8820 H     6758  OCO6758     0.0263
     24  C8        53.7800   41.9320   99.0390 C.3   6758  OCO6758    -0.0653
     25  H81       52.6890   42.0440   98.8430 H     6758  OCO6758     0.0230
     26  H82       54.2980   42.8130   98.5930 H     6758  OCO6758     0.0230
     27  H83       53.9450   41.9440  100.1370 H     6758  OCO6758     0.0230
@<TRIPOS>BOND
     1     5     4    1
     2     4     1    1
     3     1     2    1
     4     1     3    1
     5     1     6    1
     6     8     6    1
     7     7     6    1
     8     6     9    1
     9     9    10    1
    10     9    11    1
    11     9    12    1
    12    14    12    1
    13    13    12    1
    14    12    15    1
    15    15    16    1
    16    15    17    1
    17    15    18    1
    18    20    18    1
    19    19    18    1
    20    18    21    1
    21    21    22    1
    22    21    23    1
    23    21    24    1
    24    26    24    1
    25    25    24    1
    26    24    27    1
