
  CDK     1209201321

 26 28  0  0  0  0  0  0  0  0999 V2000
    1.6170   -0.1300    0.0000 C   0  0  0  0  0  0  0  0  0  0  0  0
    3.0768   -0.4750    0.0000 H   0  0  0  0  0  0  0  0  0  0  0  0
    0.3170   -0.8800    0.0000 C   0  0  0  0  0  0  0  0  0  0  0  0
   -0.6476   -2.0287    0.0000 H   0  0  0  0  0  0  0  0  0  0  0  0
    1.2808   -2.0294    0.0000 H   0  0  0  0  0  0  0  0  0  0  0  0
   -0.9810   -0.1300    0.0000 C   0  0  0  0  0  0  0  0  0  0  0  0
   -2.4339    0.2428    0.0000 H   0  0  0  0  0  0  0  0  0  0  0  0
   -1.7930   -1.6080    0.0000 C   0  0  0  0  0  0  0  0  0  0  0  0
   -2.7838   -0.4818    0.0000 H   0  0  0  0  0  0  0  0  0  0  0  0
   -2.5951   -2.8755    0.0000 H   0  0  0  0  0  0  0  0  0  0  0  0
   -0.4940   -1.0020    0.0000 C   0  0  0  0  0  0  0  0  0  0  0  0
   -0.4788   -2.5019    0.0000 H   0  0  0  0  0  0  0  0  0  0  0  0
   -0.4940    0.4980    0.0000 C   0  0  0  0  0  0  0  0  0  0  0  0
   -1.5033    1.6076    0.0000 H   0  0  0  0  0  0  0  0  0  0  0  0
   -1.8930   -0.0431    0.0000 H   0  0  0  0  0  0  0  0  0  0  0  0
    0.3170    2.1200    0.0000 C   0  0  0  0  0  0  0  0  0  0  0  0
    0.3165    3.6200    0.0000 H   0  0  0  0  0  0  0  0  0  0  0  0
    1.6170    1.3700    0.0000 C   0  0  0  0  0  0  0  0  0  0  0  0
    3.0942    1.1097    0.0000 H   0  0  0  0  0  0  0  0  0  0  0  0
    2.1297    2.7796    0.0000 H   0  0  0  0  0  0  0  0  0  0  0  0
   -0.9810    1.3700    0.0000 C   0  0  0  0  0  0  0  0  0  0  0  0
   -1.4944    2.7794    0.0000 H   0  0  0  0  0  0  0  0  0  0  0  0
   -2.4582    1.1094    0.0000 H   0  0  0  0  0  0  0  0  0  0  0  0
    0.8770   -1.6080    0.0000 C   0  0  0  0  0  0  0  0  0  0  0  0
    2.2288   -2.2580    0.0000 H   0  0  0  0  0  0  0  0  0  0  0  0
    0.2487   -2.9701    0.0000 H   0  0  0  0  0  0  0  0  0  0  0  0
  1 24  1  0  0  0  0 
  1 18  1  0  0  0  0 
  1  3  1  0  0  0  0 
  1  2  1  0  0  0  0 
  3  4  1  0  0  0  0 
  3  5  1  0  0  0  0 
  3  6  1  0  0  0  0 
  6  8  1  0  0  0  0 
  6 21  1  0  0  0  0 
  6  7  1  0  0  0  0 
  8  9  1  0  0  0  0 
  8 10  1  0  0  0  0 
  8 11  1  0  0  0  0 
 11 24  1  0  0  0  0 
 11 12  1  0  0  0  0 
 11 13  1  0  0  0  0 
 13 16  1  0  0  0  0 
 13 14  1  0  0  0  0 
 13 15  1  0  0  0  0 
 16 17  1  0  0  0  0 
 16 18  1  0  0  0  0 
 16 21  1  0  0  0  0 
 18 19  1  0  0  0  0 
 18 20  1  0  0  0  0 
 21 22  1  0  0  0  0 
 21 23  1  0  0  0  0 
 24 26  1  0  0  0  0 
 24 25  1  0  0  0  0 
M  END
