
  CDK     1209201321

 24 24  0  0  0  0  0  0  0  0999 V2000
    0.9450    0.9550    0.0000 C   0  0  0  0  0  0  0  0  0  0  0  0
    2.4223    0.6948    0.0000 O   0  0  0  0  0  0  0  0  0  0  0  0
    3.3862    1.8441    0.0000 H   0  0  0  0  0  0  0  0  0  0  0  0
   -1.6530    0.9550    0.0000 C   0  0  0  0  0  0  0  0  0  0  0  0
   -2.1655    2.3647    0.0000 H   0  0  0  0  0  0  0  0  0  0  0  0
   -3.1303    0.6948    0.0000 H   0  0  0  0  0  0  0  0  0  0  0  0
   -0.3540    1.7040    0.0000 O   0  0  0  0  0  0  0  0  0  0  0  0
    0.9450   -0.5450    0.0000 C   0  0  0  0  0  0  0  0  0  0  0  0
    2.4222   -0.2845    0.0000 H   0  0  0  0  0  0  0  0  0  0  0  0
    1.4580   -1.9545    0.0000 O   0  0  0  0  0  0  0  0  0  0  0  0
    2.9353   -2.2150    0.0000 H   0  0  0  0  0  0  0  0  0  0  0  0
   -0.3540   -1.2950    0.0000 C   0  0  0  0  0  0  0  0  0  0  0  0
   -1.3182   -2.4441    0.0000 H   0  0  0  0  0  0  0  0  0  0  0  0
    0.6102   -2.4441    0.0000 O   0  0  0  0  0  0  0  0  0  0  0  0
    0.0972   -3.8536    0.0000 H   0  0  0  0  0  0  0  0  0  0  0  0
   -1.6530   -0.5450    0.0000 C   0  0  0  0  0  0  0  0  0  0  0  0
   -3.1302   -0.2845    0.0000 H   0  0  0  0  0  0  0  0  0  0  0  0
   -2.1660   -1.9545    0.0000 O   0  0  0  0  0  0  0  0  0  0  0  0
   -3.6433   -2.2150    0.0000 H   0  0  0  0  0  0  0  0  0  0  0  0
    1.4575    2.3647    0.0000 C   0  0  0  0  0  0  0  0  0  0  0  0
    1.4569    3.8647    0.0000 H   0  0  0  0  0  0  0  0  0  0  0  0
   -0.0198    2.6246    0.0000 H   0  0  0  0  0  0  0  0  0  0  0  0
    2.9346    2.6258    0.0000 O   0  0  0  0  0  0  0  0  0  0  0  0
    3.4471    4.0355    0.0000 H   0  0  0  0  0  0  0  0  0  0  0  0
  1  8  1  0  0  0  0 
  1  2  1  0  0  0  0 
  1 20  1  0  0  0  0 
  1  7  1  0  0  0  0 
  2  3  1  0  0  0  0 
  4 16  1  0  0  0  0 
  4  5  1  0  0  0  0 
  4  6  1  0  0  0  0 
  4  7  1  0  0  0  0 
  8 10  1  0  0  0  0 
  8 12  1  0  0  0  0 
  8  9  1  0  0  0  0 
 10 11  1  0  0  0  0 
 12 16  1  0  0  0  0 
 12 13  1  0  0  0  0 
 12 14  1  0  0  0  0 
 14 15  1  0  0  0  0 
 16 17  1  0  0  0  0 
 16 18  1  0  0  0  0 
 18 19  1  0  0  0  0 
 20 21  1  0  0  0  0 
 20 22  1  0  0  0  0 
 20 23  1  0  0  0  0 
 23 24  1  0  0  0  0 
M  END
