
  CDK     1209201322

 21 20  0  0  0  0  0  0  0  0999 V2000
    2.9329   -1.8991    0.0000 C   0  0  0  0  0  0  0  0  0  0  0  0
    1.4557   -1.6386    0.0000 H   0  0  0  0  0  0  0  0  0  0  0  0
    2.4199   -3.3086    0.0000 H   0  0  0  0  0  0  0  0  0  0  0  0
    4.2320   -2.6491    0.0000 H   0  0  0  0  0  0  0  0  0  0  0  0
    3.8971   -0.7500    0.0000 C   0  0  0  0  0  0  0  0  0  0  0  0
    4.8613   -1.8991    0.0000 H   0  0  0  0  0  0  0  0  0  0  0  0
    2.5981   -0.0000    0.0000 O   0  0  0  0  0  0  0  0  0  0  0  0
    1.2990   -0.7500    0.0000 C   0  0  0  0  0  0  0  0  0  0  0  0
    0.0000    0.0000    0.0000 H   0  0  0  0  0  0  0  0  0  0  0  0
    0.3349   -1.8991    0.0000 H   0  0  0  0  0  0  0  0  0  0  0  0
    2.2632   -1.8991    0.0000 H   0  0  0  0  0  0  0  0  0  0  0  0
    5.1962   -0.0000    0.0000 C   0  0  0  0  0  0  0  0  0  0  0  0
    4.2320    1.1491    0.0000 C   0  0  0  0  0  3  0  0  0  0  0  0
    4.7450    2.5586    0.0000 O   0  0  0  0  0  1  0  0  0  0  0  0
    2.7548    0.8886    0.0000 H   0  0  0  0  0  0  0  0  0  0  0  0
    6.1603    1.1491    0.0000 H   0  0  0  0  0  0  0  0  0  0  0  0
    6.4952   -0.7500    0.0000 N   0  0  0  0  0  0  0  0  0  0  0  0
    6.4952   -2.2500    0.0000 H   0  0  0  0  0  0  0  0  0  0  0  0
    7.7942   -0.0000    0.0000 C   0  0  0  0  0  3  0  0  0  0  0  0
    9.0933   -0.7500    0.0000 O   0  0  0  0  0  1  0  0  0  0  0  0
    7.7942    1.5000    0.0000 H   0  0  0  0  0  0  0  0  0  0  0  0
  1  2  1  0  0  0  0 
  1  3  1  0  0  0  0 
  1  4  1  0  0  0  0 
  1  5  1  0  0  0  0 
  5 12  1  0  0  0  0 
  5  6  1  0  0  0  0 
  5  7  1  0  0  0  0 
  7  8  1  0  0  0  0 
  8  9  1  0  0  0  0 
  8 10  1  0  0  0  0 
  8 11  1  0  0  0  0 
 12 16  1  0  0  0  0 
 12 17  1  0  0  0  0 
 12 13  1  0  0  0  0 
 13 14  1  0  0  0  0 
 13 15  1  0  0  0  0 
 17 18  1  0  0  0  0 
 17 19  1  0  0  0  0 
 19 20  1  0  0  0  0 
 19 21  1  0  0  0  0 
M  END
