
  CDK     1209201322

 15 15  0  0  0  0  0  0  0  0999 V2000
    0.2750    0.0000    0.0000 C   0  0  0  0  0  0  0  0  0  0  0  0
    1.2391    1.1492    0.0000 H   0  0  0  0  0  0  0  0  0  0  0  0
   -1.0250   -0.7500    0.0000 C   0  0  0  0  0  0  0  0  0  0  0  0
   -2.5022   -1.0103    0.0000 H   0  0  0  0  0  0  0  0  0  0  0  0
   -0.5123   -2.1596    0.0000 H   0  0  0  0  0  0  0  0  0  0  0  0
   -1.0250    0.7500    0.0000 C   0  0  0  0  0  0  0  0  0  0  0  0
   -2.5022    1.0103    0.0000 H   0  0  0  0  0  0  0  0  0  0  0  0
   -0.5123    2.1596    0.0000 H   0  0  0  0  0  0  0  0  0  0  0  0
    1.2391   -1.1492    0.0000 C   0  0  0  0  0  0  0  0  0  0  0  0
   -0.0601   -1.8990    0.0000 H   0  0  0  0  0  0  0  0  0  0  0  0
    1.7519   -2.5588    0.0000 H   0  0  0  0  0  0  0  0  0  0  0  0
    2.7163   -0.8889    0.0000 N   0  0  0  0  0  4  0  0  0  0  0  0
    3.6804   -2.0380    0.0000 H   0  0  0  0  0  0  0  0  0  0  0  0
    4.0154   -0.1390    0.0000 H   0  0  0  0  0  0  0  0  0  0  0  0
    2.2034    0.5207    0.0000 H   0  0  0  0  0  0  0  0  0  0  0  0
  1  9  1  0  0  0  0 
  1  2  1  0  0  0  0 
  1  3  1  0  0  0  0 
  1  6  1  0  0  0  0 
  3  4  1  0  0  0  0 
  3  5  1  0  0  0  0 
  3  6  1  0  0  0  0 
  6  8  1  0  0  0  0 
  6  7  1  0  0  0  0 
  9 10  1  0  0  0  0 
  9 11  1  0  0  0  0 
  9 12  1  0  0  0  0 
 12 13  1  0  0  0  0 
 12 14  1  0  0  0  0 
 12 15  1  0  0  0  0 
M  END
