
  CDK     1209201321

 20 20  0  0  0  0  0  0  0  0999 V2000
    0.9540    1.2650    0.0000 O   0  0  0  0  0  0  0  0  0  0  0  0
    1.3920   -0.1690    0.0000 C   0  0  0  0  0  0  0  0  0  0  0  0
    2.1188   -1.4811    0.0000 H   0  0  0  0  0  0  0  0  0  0  0  0
    2.7729    0.4167    0.0000 O   0  0  0  0  0  0  0  0  0  0  0  0
    3.9706   -0.4863    0.0000 H   0  0  0  0  0  0  0  0  0  0  0  0
   -0.5460    1.2920    0.0000 C   0  0  0  0  0  0  0  0  0  0  0  0
   -2.0074    1.6299    0.0000 H   0  0  0  0  0  0  0  0  0  0  0  0
   -0.3625    2.7807    0.0000 C   0  0  0  0  0  0  0  0  0  0  0  0
    1.0717    2.3415    0.0000 H   0  0  0  0  0  0  0  0  0  0  0  0
    0.3191    4.1169    0.0000 H   0  0  0  0  0  0  0  0  0  0  0  0
   -1.5601    3.6840    0.0000 O   0  0  0  0  0  0  0  0  0  0  0  0
   -1.3766    5.1727    0.0000 H   0  0  0  0  0  0  0  0  0  0  0  0
    0.1630   -1.0290    0.0000 C   0  0  0  0  0  0  0  0  0  0  0  0
   -0.8598   -2.1262    0.0000 H   0  0  0  0  0  0  0  0  0  0  0  0
    1.1470   -2.1611    0.0000 O   0  0  0  0  0  0  0  0  0  0  0  0
    0.6586   -3.5794    0.0000 H   0  0  0  0  0  0  0  0  0  0  0  0
   -1.0350   -0.1270    0.0000 C   0  0  0  0  0  0  0  0  0  0  0  0
   -2.3944    0.5070    0.0000 H   0  0  0  0  0  0  0  0  0  0  0  0
   -1.8073   -1.4129    0.0000 O   0  0  0  0  0  0  0  0  0  0  0  0
   -3.3071   -1.3870    0.0000 H   0  0  0  0  0  0  0  0  0  0  0  0
  1  2  1  0  0  0  0 
  1  6  1  0  0  0  0 
  2  3  1  0  0  0  0 
  2  4  1  0  0  0  0 
  2 13  1  0  0  0  0 
  4  5  1  0  0  0  0 
  6  8  1  0  0  0  0 
  6 17  1  0  0  0  0 
  6  7  1  0  0  0  0 
  8  9  1  0  0  0  0 
  8 10  1  0  0  0  0 
  8 11  1  0  0  0  0 
 11 12  1  0  0  0  0 
 13 17  1  0  0  0  0 
 13 14  1  0  0  0  0 
 13 15  1  0  0  0  0 
 15 16  1  0  0  0  0 
 17 18  1  0  0  0  0 
 17 19  1  0  0  0  0 
 19 20  1  0  0  0  0 
M  END
