
  CDK     1209201322

 35 35  0  0  0  0  0  0  0  0999 V2000
    1.2990   -0.7500    0.0000 C   0  0  0  0  0  0  0  0  0  0  0  0
    1.8120   -2.1595    0.0000 H   0  0  0  0  0  0  0  0  0  0  0  0
    2.7762   -0.4895    0.0000 O   0  0  0  0  0  0  0  0  0  0  0  0
    3.7404   -1.6386    0.0000 H   0  0  0  0  0  0  0  0  0  0  0  0
   -1.2990   -0.7500    0.0000 C   0  0  0  0  0  0  0  0  0  0  0  0
   -1.8120   -2.1595    0.0000 H   0  0  0  0  0  0  0  0  0  0  0  0
   -0.0000   -1.5000    0.0000 O   0  0  0  0  0  0  0  0  0  0  0  0
    1.2990    0.7500    0.0000 C   0  0  0  0  0  0  0  0  0  0  0  0
    1.8120    2.1595    0.0000 H   0  0  0  0  0  0  0  0  0  0  0  0
    2.7762    0.4895    0.0000 N   0  0  0  0  0  0  0  0  0  0  0  0
    3.2892   -0.9200    0.0000 H   0  0  0  0  0  0  0  0  0  0  0  0
    3.7404    1.6386    0.0000 C   0  0  0  0  0  3  0  0  0  0  0  0
    3.2274    3.0481    0.0000 O   0  0  0  0  0  1  0  0  0  0  0  0
    5.2176    1.3781    0.0000 C   0  0  0  0  0  0  0  0  0  0  0  0
    6.1818    2.5272    0.0000 H   0  0  0  0  0  0  0  0  0  0  0  0
    4.7046   -0.0314    0.0000 H   0  0  0  0  0  0  0  0  0  0  0  0
    6.5166    0.6281    0.0000 H   0  0  0  0  0  0  0  0  0  0  0  0
   -0.0000    1.5000    0.0000 C   0  0  0  0  0  0  0  0  0  0  0  0
    0.9642    2.6491    0.0000 H   0  0  0  0  0  0  0  0  0  0  0  0
   -0.9642    2.6491    0.0000 O   0  0  0  0  0  0  0  0  0  0  0  0
   -2.4414    2.3886    0.0000 H   0  0  0  0  0  0  0  0  0  0  0  0
   -1.2990    0.7500    0.0000 C   0  0  0  0  0  0  0  0  0  0  0  0
   -2.7762    0.4895    0.0000 H   0  0  0  0  0  0  0  0  0  0  0  0
   -1.8120    2.1595    0.0000 N   0  0  0  0  0  0  0  0  0  0  0  0
   -0.8479    3.3086    0.0000 H   0  0  0  0  0  0  0  0  0  0  0  0
   -3.2893    2.4200    0.0000 C   0  0  0  0  0  3  0  0  0  0  0  0
   -4.2534    1.2709    0.0000 O   0  0  0  0  0  1  0  0  0  0  0  0
   -3.8023    3.8295    0.0000 C   0  0  0  0  0  0  0  0  0  0  0  0
   -5.2795    4.0900    0.0000 H   0  0  0  0  0  0  0  0  0  0  0  0
   -2.3251    4.0900    0.0000 H   0  0  0  0  0  0  0  0  0  0  0  0
   -3.8023    5.3295    0.0000 H   0  0  0  0  0  0  0  0  0  0  0  0
   -2.7762   -0.4895    0.0000 C   0  0  0  0  0  0  0  0  0  0  0  0
   -3.7404   -1.6386    0.0000 H   0  0  0  0  0  0  0  0  0  0  0  0
   -2.2632    0.9200    0.0000 H   0  0  0  0  0  0  0  0  0  0  0  0
   -4.0752    0.2605    0.0000 H   0  0  0  0  0  0  0  0  0  0  0  0
  1  8  1  0  0  0  0 
  1  2  1  0  0  0  0 
  1  3  1  0  0  0  0 
  1  7  1  0  0  0  0 
  3  4  1  0  0  0  0 
  5 32  1  0  0  0  0 
  5  6  1  0  0  0  0 
  5 22  1  0  0  0  0 
  5  7  1  0  0  0  0 
  8 10  1  0  0  0  0 
  8 18  1  0  0  0  0 
  8  9  1  0  0  0  0 
 10 11  1  0  0  0  0 
 10 12  1  0  0  0  0 
 12 13  1  0  0  0  0 
 12 14  1  0  0  0  0 
 14 16  1  0  0  0  0 
 14 17  1  0  0  0  0 
 14 15  1  0  0  0  0 
 18 19  1  0  0  0  0 
 18 20  1  0  0  0  0 
 18 22  1  0  0  0  0 
 20 21  1  0  0  0  0 
 22 24  1  0  0  0  0 
 22 23  1  0  0  0  0 
 24 25  1  0  0  0  0 
 24 26  1  0  0  0  0 
 26 27  1  0  0  0  0 
 26 28  1  0  0  0  0 
 28 29  1  0  0  0  0 
 28 30  1  0  0  0  0 
 28 31  1  0  0  0  0 
 32 33  1  0  0  0  0 
 32 34  1  0  0  0  0 
 32 35  1  0  0  0  0 
M  END
