
  CDK     1209201321

 20 20  0  0  0  0  0  0  0  0999 V2000
    1.2990   -0.7500    0.0000 N   0  0  0  0  0  0  0  0  0  0  0  0
    1.2990    0.7500    0.0000 C   0  0  0  0  0  0  0  0  0  0  0  0
    2.5980    1.5000    0.0000 O   0  0  0  0  0  0  0  0  0  0  0  0
    0.0000    1.5000    0.0000 N   0  0  0  0  0  0  0  0  0  0  0  0
    0.0000    3.0000    0.0000 H   0  0  0  0  0  0  0  0  0  0  0  0
   -1.2990    0.7500    0.0000 C   0  0  0  0  0  0  0  0  0  0  0  0
   -2.5980    1.5000    0.0000 O   0  0  0  0  0  0  0  0  0  0  0  0
   -1.2990   -0.7500    0.0000 C   0  0  0  0  0  0  0  0  0  0  0  0
   -2.7762   -0.4895    0.0000 H   0  0  0  0  0  0  0  0  0  0  0  0
    0.0000   -1.5000    0.0000 C   0  0  0  0  0  0  0  0  0  0  0  0
   -0.9642   -2.6491    0.0000 H   0  0  0  0  0  0  0  0  0  0  0  0
    0.9642   -2.6491    0.0000 H   0  0  0  0  0  0  0  0  0  0  0  0
   -1.8120   -2.1595    0.0000 C   0  0  0  0  0  0  0  0  0  0  0  0
   -3.2893   -2.4200    0.0000 H   0  0  0  0  0  0  0  0  0  0  0  0
   -0.3348   -2.4200    0.0000 H   0  0  0  0  0  0  0  0  0  0  0  0
   -1.8121   -3.6595    0.0000 H   0  0  0  0  0  0  0  0  0  0  0  0
    2.5980   -1.5000    0.0000 C   0  0  0  0  0  0  0  0  0  0  0  0
    3.8971   -0.7500    0.0000 H   0  0  0  0  0  0  0  0  0  0  0  0
    1.6339   -2.6491    0.0000 H   0  0  0  0  0  0  0  0  0  0  0  0
    3.5622   -2.6491    0.0000 H   0  0  0  0  0  0  0  0  0  0  0  0
  1 17  1  0  0  0  0 
  1  2  1  0  0  0  0 
  1 10  1  0  0  0  0 
  2  3  1  0  0  0  0 
  2  4  1  0  0  0  0 
  4  5  1  0  0  0  0 
  4  6  1  0  0  0  0 
  6  8  1  0  0  0  0 
  6  7  1  0  0  0  0 
  8  9  1  0  0  0  0 
  8 10  1  0  0  0  0 
  8 13  1  0  0  0  0 
 10 11  1  0  0  0  0 
 10 12  1  0  0  0  0 
 13 16  1  0  0  0  0 
 13 14  1  0  0  0  0 
 13 15  1  0  0  0  0 
 17 18  1  0  0  0  0 
 17 19  1  0  0  0  0 
 17 20  1  0  0  0  0 
M  END
