
  CDK     1209201321

 19 19  0  0  0  0  0  0  0  0999 V2000
    1.2990   -1.1790    0.0000 C   0  0  0  0  0  0  0  0  0  0  0  0
    2.5980   -1.9290    0.0000 H   0  0  0  0  0  0  0  0  0  0  0  0
    0.0000   -1.9290    0.0000 C   0  0  0  0  0  0  0  0  0  0  0  0
   -0.0000   -3.4290    0.0000 H   0  0  0  0  0  0  0  0  0  0  0  0
   -1.2990   -1.1790    0.0000 C   0  0  0  0  0  0  0  0  0  0  0  0
   -2.5980   -1.9290    0.0000 H   0  0  0  0  0  0  0  0  0  0  0  0
   -1.2990    0.3210    0.0000 C   0  0  0  0  0  0  0  0  0  0  0  0
   -2.5980    1.0710    0.0000 H   0  0  0  0  0  0  0  0  0  0  0  0
    0.0000    1.0710    0.0000 C   0  0  0  0  0  0  0  0  0  0  0  0
    1.2990    0.3210    0.0000 C   0  0  0  0  0  0  0  0  0  0  0  0
    2.5980    1.0710    0.0000 H   0  0  0  0  0  0  0  0  0  0  0  0
    0.0000    2.5710    0.0000 C   0  0  0  0  0  0  0  0  0  0  0  0
    1.4772    2.3105    0.0000 H   0  0  0  0  0  0  0  0  0  0  0  0
    0.5130    3.9805    0.0000 O   0  0  0  0  0  0  0  0  0  0  0  0
   -0.4512    5.1296    0.0000 H   0  0  0  0  0  0  0  0  0  0  0  0
   -1.2990    3.3210    0.0000 C   0  0  0  0  0  0  0  0  0  0  0  0
   -1.2990    4.8210    0.0000 H   0  0  0  0  0  0  0  0  0  0  0  0
   -2.7762    3.5815    0.0000 H   0  0  0  0  0  0  0  0  0  0  0  0
   -1.8121    1.9115    0.0000 H   0  0  0  0  0  0  0  0  0  0  0  0
  1  2  1  0  0  0  0 
  1  3  1  0  0  0  0 
  1 10  1  0  0  0  0 
  3  4  1  0  0  0  0 
  3  5  1  0  0  0  0 
  5  6  1  0  0  0  0 
  5  7  1  0  0  0  0 
  7  8  1  0  0  0  0 
  7  9  1  0  0  0  0 
  9 10  1  0  0  0  0 
  9 12  1  0  0  0  0 
 10 11  1  0  0  0  0 
 12 16  1  0  0  0  0 
 12 13  1  0  0  0  0 
 12 14  1  0  0  0  0 
 14 15  1  0  0  0  0 
 16 17  1  0  0  0  0 
 16 18  1  0  0  0  0 
 16 19  1  0  0  0  0 
M  END
