
  CDK     1209201322

 30 31  0  0  0  0  0  0  0  0999 V2000
   -2.5980    0.7500    0.0000 C   0  0  0  0  0  0  0  0  0  0  0  0
   -3.1110    2.1595    0.0000 H   0  0  0  0  0  0  0  0  0  0  0  0
   -4.0752    0.4895    0.0000 O   0  0  0  0  0  0  0  0  0  0  0  0
   -5.0394    1.6386    0.0000 H   0  0  0  0  0  0  0  0  0  0  0  0
   -1.2990    1.5000    0.0000 C   0  0  0  0  0  0  0  0  0  0  0  0
   -0.3348    2.6491    0.0000 H   0  0  0  0  0  0  0  0  0  0  0  0
   -2.2632    2.6491    0.0000 H   0  0  0  0  0  0  0  0  0  0  0  0
    0.0000    0.7500    0.0000 C   0  0  0  0  0  0  0  0  0  0  0  0
    0.0000   -0.7500    0.0000 C   0  0  0  0  0  0  0  0  0  0  0  0
   -1.2990   -1.5000    0.0000 C   0  0  0  0  0  0  0  0  0  0  0  0
   -2.2632   -2.6491    0.0000 H   0  0  0  0  0  0  0  0  0  0  0  0
   -0.3348   -2.6491    0.0000 H   0  0  0  0  0  0  0  0  0  0  0  0
   -2.5980   -0.7500    0.0000 C   0  0  0  0  0  0  0  0  0  0  0  0
   -4.0752   -0.4895    0.0000 H   0  0  0  0  0  0  0  0  0  0  0  0
   -3.1110   -2.1595    0.0000 H   0  0  0  0  0  0  0  0  0  0  0  0
   -0.0000   -2.2500    0.0000 C   0  0  0  0  0  0  0  0  0  0  0  0
    1.2990   -3.0000    0.0000 H   0  0  0  0  0  0  0  0  0  0  0  0
   -1.4772   -1.9895    0.0000 H   0  0  0  0  0  0  0  0  0  0  0  0
   -0.5130   -3.6595    0.0000 H   0  0  0  0  0  0  0  0  0  0  0  0
    1.2990    1.5000    0.0000 C   0  0  0  0  0  0  0  0  0  0  0  0
    1.2990    3.0000    0.0000 H   0  0  0  0  0  0  0  0  0  0  0  0
    2.5980    0.7500    0.0000 C   0  0  0  0  0  0  0  0  0  0  0  0
    3.1110    2.1595    0.0000 H   0  0  0  0  0  0  0  0  0  0  0  0
    4.0752    0.4895    0.0000 H   0  0  0  0  0  0  0  0  0  0  0  0
    2.5980   -0.7500    0.0000 C   0  0  0  0  0  0  0  0  0  0  0  0
    3.1110   -2.1595    0.0000 H   0  0  0  0  0  0  0  0  0  0  0  0
    4.0752   -0.4895    0.0000 H   0  0  0  0  0  0  0  0  0  0  0  0
    1.2990   -1.5000    0.0000 C   0  0  0  0  0  0  0  0  0  0  0  0
    0.3348   -2.6491    0.0000 H   0  0  0  0  0  0  0  0  0  0  0  0
    2.2632   -2.6491    0.0000 H   0  0  0  0  0  0  0  0  0  0  0  0
  1  2  1  0  0  0  0 
  1  3  1  0  0  0  0 
  1  5  1  0  0  0  0 
  1 13  1  0  0  0  0 
  3  4  1  0  0  0  0 
  5  8  1  0  0  0  0 
  5  6  1  0  0  0  0 
  5  7  1  0  0  0  0 
  8  9  1  0  0  0  0 
  8 20  1  0  0  0  0 
  9 16  1  0  0  0  0 
  9 10  1  0  0  0  0 
  9 28  1  0  0  0  0 
 10 11  1  0  0  0  0 
 10 12  1  0  0  0  0 
 10 13  1  0  0  0  0 
 13 14  1  0  0  0  0 
 13 15  1  0  0  0  0 
 16 18  1  0  0  0  0 
 16 19  1  0  0  0  0 
 16 17  1  0  0  0  0 
 20 21  1  0  0  0  0 
 20 22  1  0  0  0  0 
 22 24  1  0  0  0  0 
 22 25  1  0  0  0  0 
 22 23  1  0  0  0  0 
 25 26  1  0  0  0  0 
 25 27  1  0  0  0  0 
 25 28  1  0  0  0  0 
 28 29  1  0  0  0  0 
 28 30  1  0  0  0  0 
M  END
