
  CDK     1209201322

 30 33  0  0  0  0  0  0  0  0999 V2000
    1.2910    0.7580    0.0000 C   0  0  0  0  0  0  0  0  0  0  0  0
    2.7699    0.5075    0.0000 H   0  0  0  0  0  0  0  0  0  0  0  0
    1.7934    2.1714    0.0000 H   0  0  0  0  0  0  0  0  0  0  0  0
    0.0040   -1.5030    0.0000 C   0  0  0  0  0  0  0  0  0  0  0  0
    0.9695   -2.6510    0.0000 H   0  0  0  0  0  0  0  0  0  0  0  0
    1.3000   -0.7420    0.0000 C   0  0  0  0  0  0  0  0  0  0  0  0
    2.7755   -0.4720    0.0000 H   0  0  0  0  0  0  0  0  0  0  0  0
    1.8227   -2.1480    0.0000 H   0  0  0  0  0  0  0  0  0  0  0  0
   -0.0140    1.4970    0.0000 C   0  0  0  0  0  0  0  0  0  0  0  0
   -0.0258    2.9970    0.0000 H   0  0  0  0  0  0  0  0  0  0  0  0
   -1.3100    0.7360    0.0000 C   0  0  0  0  0  0  0  0  0  0  0  0
   -1.8419    2.1385    0.0000 H   0  0  0  0  0  0  0  0  0  0  0  0
   -2.7818    0.4467    0.0000 H   0  0  0  0  0  0  0  0  0  0  0  0
   -1.2720   -0.7470    0.0000 C   0  0  0  0  0  0  0  0  0  0  0  0
   -2.5656   -1.5063    0.0000 H   0  0  0  0  0  0  0  0  0  0  0  0
   -0.9660   -2.6472    0.0000 N   0  0  0  0  0  0  0  0  0  0  0  0
   -2.4618   -2.5350    0.0000 C   0  0  0  0  0  0  0  0  0  0  0  0
   -3.3793   -1.3483    0.0000 N   0  0  0  0  0  0  0  0  0  0  0  0
   -4.8657   -1.5495    0.0000 C   0  0  0  0  0  0  0  0  0  0  0  0
   -5.4347   -2.9374    0.0000 N   0  0  0  0  0  0  0  0  0  0  0  0
   -6.9211   -3.1387    0.0000 H   0  0  0  0  0  0  0  0  0  0  0  0
   -5.7832   -0.3628    0.0000 N   0  0  0  0  0  0  0  0  0  0  0  0
   -7.2697   -0.5641    0.0000 H   0  0  0  0  0  0  0  0  0  0  0  0
   -5.2143    1.0251    0.0000 H   0  0  0  0  0  0  0  0  0  0  0  0
   -4.5172   -4.1241    0.0000 C   0  0  0  0  0  0  0  0  0  0  0  0
   -5.0861   -5.5120    0.0000 O   0  0  0  0  0  0  0  0  0  0  0  0
   -3.0307   -3.9229    0.0000 C   0  0  0  0  0  0  0  0  0  0  0  0
   -1.8866   -4.8929    0.0000 N   0  0  0  0  0  0  0  0  0  0  0  0
   -0.6105   -4.1044    0.0000 C   0  0  0  0  0  0  0  0  0  0  0  0
    0.7774   -4.6734    0.0000 H   0  0  0  0  0  0  0  0  0  0  0  0
  1  9  1  0  0  0  0 
  1  2  1  0  0  0  0 
  1  3  1  0  0  0  0 
  1  6  1  0  0  0  0 
  4 16  1  0  0  0  0 
  4  6  1  0  0  0  0 
  4 14  1  0  0  0  0 
  4  5  1  0  0  0  0 
  6  8  1  0  0  0  0 
  6  7  1  0  0  0  0 
  9 10  1  0  0  0  0 
  9 11  1  0  0  0  0 
  9 14  1  0  0  0  0 
 11 12  1  0  0  0  0 
 11 13  1  0  0  0  0 
 11 14  1  0  0  0  0 
 14 15  1  0  0  0  0 
 16 17  1  0  0  0  0 
 16 29  1  0  0  0  0 
 17 18  1  0  0  0  0 
 17 27  1  0  0  0  0 
 18 19  1  0  0  0  0 
 19 20  1  0  0  0  0 
 19 22  1  0  0  0  0 
 20 25  1  0  0  0  0 
 20 21  1  0  0  0  0 
 22 24  1  0  0  0  0 
 22 23  1  0  0  0  0 
 25 26  1  0  0  0  0 
 25 27  1  0  0  0  0 
 27 28  1  0  0  0  0 
 28 29  1  0  0  0  0 
 29 30  1  0  0  0  0 
M  END
