
  CDK     1209201322

 15 15  0  0  0  0  0  0  0  0999 V2000
    1.2130    0.3940    0.0000 C   0  0  0  0  0  0  0  0  0  0  0  0
    2.5833   -0.2161    0.0000 H   0  0  0  0  0  0  0  0  0  0  0  0
    1.9632    1.6929    0.0000 H   0  0  0  0  0  0  0  0  0  0  0  0
    0.0000    1.2760    0.0000 C   0  0  0  0  0  0  0  0  0  0  0  0
    1.0038    2.3906    0.0000 H   0  0  0  0  0  0  0  0  0  0  0  0
   -1.0038    2.3906    0.0000 H   0  0  0  0  0  0  0  0  0  0  0  0
   -1.2130    0.3940    0.0000 C   0  0  0  0  0  0  0  0  0  0  0  0
   -1.9632    1.6929    0.0000 H   0  0  0  0  0  0  0  0  0  0  0  0
   -2.5833   -0.2161    0.0000 H   0  0  0  0  0  0  0  0  0  0  0  0
   -0.7500   -1.0320    0.0000 C   0  0  0  0  0  0  0  0  0  0  0  0
   -2.2173   -1.3437    0.0000 H   0  0  0  0  0  0  0  0  0  0  0  0
   -0.5933   -2.5238    0.0000 H   0  0  0  0  0  0  0  0  0  0  0  0
    0.7500   -1.0320    0.0000 C   0  0  0  0  0  0  0  0  0  0  0  0
    0.5933   -2.5238    0.0000 H   0  0  0  0  0  0  0  0  0  0  0  0
    2.2173   -1.3437    0.0000 H   0  0  0  0  0  0  0  0  0  0  0  0
  1  2  1  0  0  0  0 
  1  3  1  0  0  0  0 
  1  4  1  0  0  0  0 
  1 13  1  0  0  0  0 
  4  5  1  0  0  0  0 
  4  6  1  0  0  0  0 
  4  7  1  0  0  0  0 
  7  8  1  0  0  0  0 
  7  9  1  0  0  0  0 
  7 10  1  0  0  0  0 
 10 11  1  0  0  0  0 
 10 12  1  0  0  0  0 
 10 13  1  0  0  0  0 
 13 14  1  0  0  0  0 
 13 15  1  0  0  0  0 
M  END
