
  CDK     1209201321

 29 31  0  0  0  0  0  0  0  0999 V2000
    1.2910    0.7580    0.0000 C   0  0  0  0  0  0  0  0  0  0  0  0
    1.7934    2.1714    0.0000 H   0  0  0  0  0  0  0  0  0  0  0  0
    2.7699    0.5075    0.0000 H   0  0  0  0  0  0  0  0  0  0  0  0
    0.0040   -1.5030    0.0000 C   0  0  0  0  0  0  0  0  0  0  0  0
   -0.9660   -2.6472    0.0000 H   0  0  0  0  0  0  0  0  0  0  0  0
    0.9695   -2.6510    0.0000 H   0  0  0  0  0  0  0  0  0  0  0  0
    1.3000   -0.7420    0.0000 C   0  0  0  0  0  0  0  0  0  0  0  0
    1.8227   -2.1480    0.0000 H   0  0  0  0  0  0  0  0  0  0  0  0
    2.7755   -0.4720    0.0000 H   0  0  0  0  0  0  0  0  0  0  0  0
   -0.0140    1.4970    0.0000 C   0  0  0  0  0  0  0  0  0  0  0  0
   -0.0258    2.9970    0.0000 H   0  0  0  0  0  0  0  0  0  0  0  0
   -1.3100    0.7360    0.0000 C   0  0  0  0  0  0  0  0  0  0  0  0
   -1.8419    2.1385    0.0000 H   0  0  0  0  0  0  0  0  0  0  0  0
   -2.7818    0.4467    0.0000 H   0  0  0  0  0  0  0  0  0  0  0  0
   -1.2720   -0.7470    0.0000 C   0  0  0  0  0  0  0  0  0  0  0  0
   -2.5656   -1.5063    0.0000 N   0  0  0  0  0  0  0  0  0  0  0  0
   -3.8700   -0.7656    0.0000 C   0  0  0  0  0  0  0  0  0  0  0  0
   -3.8808    0.7343    0.0000 H   0  0  0  0  0  0  0  0  0  0  0  0
   -2.5549   -3.0063    0.0000 C   0  0  0  0  0  0  0  0  0  0  0  0
   -1.2505   -3.7469    0.0000 O   0  0  0  0  0  0  0  0  0  0  0  0
   -3.8485   -3.7656    0.0000 N   0  0  0  0  0  0  0  0  0  0  0  0
   -3.8377   -5.2655    0.0000 H   0  0  0  0  0  0  0  0  0  0  0  0
   -5.1529   -3.0249    0.0000 C   0  0  0  0  0  0  0  0  0  0  0  0
   -6.4465   -3.7842    0.0000 O   0  0  0  0  0  0  0  0  0  0  0  0
   -5.1636   -1.5249    0.0000 C   0  0  0  0  0  0  0  0  0  0  0  0
   -6.4680   -0.7843    0.0000 C   0  0  0  0  0  0  0  0  0  0  0  0
   -7.7616   -1.5436    0.0000 H   0  0  0  0  0  0  0  0  0  0  0  0
   -5.5121    0.3717    0.0000 H   0  0  0  0  0  0  0  0  0  0  0  0
   -7.4404    0.3578    0.0000 H   0  0  0  0  0  0  0  0  0  0  0  0
  1 10  1  0  0  0  0 
  1  3  1  0  0  0  0 
  1  2  1  0  0  0  0 
  1  7  1  0  0  0  0 
  4  7  1  0  0  0  0 
  4  5  1  0  0  0  0 
  4  6  1  0  0  0  0 
  4 15  1  0  0  0  0 
  7  8  1  0  0  0  0 
  7  9  1  0  0  0  0 
 10 11  1  0  0  0  0 
 10 12  1  0  0  0  0 
 10 15  1  0  0  0  0 
 12 13  1  0  0  0  0 
 12 14  1  0  0  0  0 
 12 15  1  0  0  0  0 
 15 16  1  0  0  0  0 
 16 17  1  0  0  0  0 
 16 19  1  0  0  0  0 
 17 25  1  0  0  0  0 
 17 18  1  0  0  0  0 
 19 20  1  0  0  0  0 
 19 21  1  0  0  0  0 
 21 22  1  0  0  0  0 
 21 23  1  0  0  0  0 
 23 24  1  0  0  0  0 
 23 25  1  0  0  0  0 
 25 26  1  0  0  0  0 
 26 27  1  0  0  0  0 
 26 28  1  0  0  0  0 
 26 29  1  0  0  0  0 
M  END
