
  CDK     1209201322

 23 22  0  0  0  0  0  0  0  0999 V2000
    1.2990   -0.7500    0.0000 C   0  0  0  0  0  0  0  0  0  0  0  0
    0.0000    0.0000    0.0000 H   0  0  0  0  0  0  0  0  0  0  0  0
    0.3349   -1.8991    0.0000 H   0  0  0  0  0  0  0  0  0  0  0  0
    2.2632   -1.8991    0.0000 H   0  0  0  0  0  0  0  0  0  0  0  0
    2.5981   -0.0000    0.0000 C   0  0  0  0  0  0  0  0  0  0  0  0
    3.5623    1.1491    0.0000 H   0  0  0  0  0  0  0  0  0  0  0  0
    1.6339    1.1491    0.0000 H   0  0  0  0  0  0  0  0  0  0  0  0
    3.8971   -0.7500    0.0000 C   0  0  0  0  0  0  0  0  0  0  0  0
    4.8613   -1.8991    0.0000 H   0  0  0  0  0  0  0  0  0  0  0  0
    5.1962   -0.0000    0.0000 C   0  0  0  0  0  0  0  0  0  0  0  0
    6.1603    1.1491    0.0000 H   0  0  0  0  0  0  0  0  0  0  0  0
    4.2320    1.1491    0.0000 H   0  0  0  0  0  0  0  0  0  0  0  0
    6.4952   -0.7500    0.0000 C   0  0  0  0  0  0  0  0  0  0  0  0
    7.7942   -0.0000    0.0000 H   0  0  0  0  0  0  0  0  0  0  0  0
    7.4594   -1.8991    0.0000 H   0  0  0  0  0  0  0  0  0  0  0  0
    5.5310   -1.8991    0.0000 H   0  0  0  0  0  0  0  0  0  0  0  0
    2.9329   -1.8991    0.0000 C   0  0  0  0  0  0  0  0  0  0  0  0
    1.9688   -0.7500    0.0000 H   0  0  0  0  0  0  0  0  0  0  0  0
    1.6339   -2.6491    0.0000 H   0  0  0  0  0  0  0  0  0  0  0  0
    3.4460   -3.3086    0.0000 C   0  0  0  0  0  0  0  0  0  0  0  0
    2.4818   -4.4577    0.0000 H   0  0  0  0  0  0  0  0  0  0  0  0
    4.4101   -4.4577    0.0000 H   0  0  0  0  0  0  0  0  0  0  0  0
    4.7450   -2.5586    0.0000 H   0  0  0  0  0  0  0  0  0  0  0  0
  1  2  1  0  0  0  0 
  1  3  1  0  0  0  0 
  1  4  1  0  0  0  0 
  1  5  1  0  0  0  0 
  5  8  1  0  0  0  0 
  5  6  1  0  0  0  0 
  5  7  1  0  0  0  0 
  8 17  1  0  0  0  0 
  8 10  1  0  0  0  0 
  8  9  1  0  0  0  0 
 10 11  1  0  0  0  0 
 10 12  1  0  0  0  0 
 10 13  1  0  0  0  0 
 13 16  1  0  0  0  0 
 13 14  1  0  0  0  0 
 13 15  1  0  0  0  0 
 17 18  1  0  0  0  0 
 17 19  1  0  0  0  0 
 17 20  1  0  0  0  0 
 20 21  1  0  0  0  0 
 20 22  1  0  0  0  0 
 20 23  1  0  0  0  0 
M  END
