
  CDK     1209201322

 26 27  0  0  0  0  0  0  0  0999 V2000
   -2.3060   -0.7500    0.0000 C   0  0  0  0  0  0  0  0  0  0  0  0
   -3.6050   -1.5000    0.0000 H   0  0  0  0  0  0  0  0  0  0  0  0
   -1.0070   -1.5000    0.0000 C   0  0  0  0  0  0  0  0  0  0  0  0
   -1.0072   -3.0000    0.0000 H   0  0  0  0  0  0  0  0  0  0  0  0
    0.2930   -0.7500    0.0000 N   0  0  0  0  0  0  0  0  0  0  0  0
    1.7190   -1.2140    0.0000 C   0  0  0  0  0  0  0  0  0  0  0  0
    2.6010    0.0000    0.0000 C   0  0  0  0  0  0  0  0  0  0  0  0
    4.1010    0.0000    0.0000 H   0  0  0  0  0  0  0  0  0  0  0  0
    1.7190    1.2140    0.0000 C   0  0  0  0  0  0  0  0  0  0  0  0
    2.1822    2.6407    0.0000 H   0  0  0  0  0  0  0  0  0  0  0  0
    0.2930    0.7500    0.0000 C   0  0  0  0  0  0  0  0  0  0  0  0
   -1.0070    1.5000    0.0000 C   0  0  0  0  0  0  0  0  0  0  0  0
   -1.0072    3.0000    0.0000 H   0  0  0  0  0  0  0  0  0  0  0  0
   -2.3060    0.7500    0.0000 C   0  0  0  0  0  0  0  0  0  0  0  0
   -3.6050    1.5000    0.0000 H   0  0  0  0  0  0  0  0  0  0  0  0
    2.1822   -2.6407    0.0000 C   0  0  0  0  0  0  0  0  0  0  0  0
    0.6968   -2.8491    0.0000 H   0  0  0  0  0  0  0  0  0  0  0  0
    2.1296   -4.1398    0.0000 H   0  0  0  0  0  0  0  0  0  0  0  0
    3.6494   -2.9528    0.0000 C   0  0  0  0  0  0  0  0  0  0  0  0
    5.1348   -2.7444    0.0000 H   0  0  0  0  0  0  0  0  0  0  0  0
    3.7020   -1.4538    0.0000 O   0  0  0  0  0  0  0  0  0  0  0  0
    5.0266   -0.7498    0.0000 H   0  0  0  0  0  0  0  0  0  0  0  0
    4.1126   -4.3795    0.0000 C   0  0  0  0  0  0  0  0  0  0  0  0
    5.5798   -4.6917    0.0000 H   0  0  0  0  0  0  0  0  0  0  0  0
    2.6272   -4.5880    0.0000 H   0  0  0  0  0  0  0  0  0  0  0  0
    4.0600   -5.8786    0.0000 H   0  0  0  0  0  0  0  0  0  0  0  0
  1  2  1  0  0  0  0 
  1  3  1  0  0  0  0 
  1 14  1  0  0  0  0 
  3  4  1  0  0  0  0 
  3  5  1  0  0  0  0 
  5 11  1  0  0  0  0 
  5  6  1  0  0  0  0 
  6 16  1  0  0  0  0 
  6  7  1  0  0  0  0 
  7  8  1  0  0  0  0 
  7  9  1  0  0  0  0 
  9 10  1  0  0  0  0 
  9 11  1  0  0  0  0 
 11 12  1  0  0  0  0 
 12 13  1  0  0  0  0 
 12 14  1  0  0  0  0 
 14 15  1  0  0  0  0 
 16 17  1  0  0  0  0 
 16 18  1  0  0  0  0 
 16 19  1  0  0  0  0 
 19 20  1  0  0  0  0 
 19 21  1  0  0  0  0 
 19 23  1  0  0  0  0 
 21 22  1  0  0  0  0 
 23 24  1  0  0  0  0 
 23 25  1  0  0  0  0 
 23 26  1  0  0  0  0 
M  END
