
  CDK     1209201322

 24 24  0  0  0  0  0  0  0  0999 V2000
   -0.0000    1.5000    0.0000 C   0  0  0  0  0  0  0  0  0  0  0  0
    0.9642    2.6491    0.0000 H   0  0  0  0  0  0  0  0  0  0  0  0
   -0.9642    2.6491    0.0000 O   0  0  0  0  0  0  0  0  0  0  0  0
   -0.4512    4.0586    0.0000 H   0  0  0  0  0  0  0  0  0  0  0  0
    1.2990   -0.7500    0.0000 C   0  0  0  0  0  0  0  0  0  0  0  0
    1.8120   -2.1595    0.0000 H   0  0  0  0  0  0  0  0  0  0  0  0
    2.7762   -0.4895    0.0000 O   0  0  0  0  0  0  0  0  0  0  0  0
    3.7404   -1.6386    0.0000 H   0  0  0  0  0  0  0  0  0  0  0  0
   -1.2990    0.7500    0.0000 C   0  0  0  0  0  0  0  0  0  0  0  0
   -1.8120    2.1595    0.0000 H   0  0  0  0  0  0  0  0  0  0  0  0
   -2.7762    0.4895    0.0000 O   0  0  0  0  0  0  0  0  0  0  0  0
   -3.7404    1.6386    0.0000 H   0  0  0  0  0  0  0  0  0  0  0  0
   -1.2990   -0.7500    0.0000 C   0  0  0  0  0  0  0  0  0  0  0  0
   -2.7762   -0.4895    0.0000 H   0  0  0  0  0  0  0  0  0  0  0  0
   -1.8120   -2.1595    0.0000 O   0  0  0  0  0  0  0  0  0  0  0  0
   -3.2893   -2.4200    0.0000 H   0  0  0  0  0  0  0  0  0  0  0  0
   -0.0000   -1.5000    0.0000 C   0  0  0  0  0  0  0  0  0  0  0  0
   -0.9642   -2.6491    0.0000 H   0  0  0  0  0  0  0  0  0  0  0  0
    0.9642   -2.6491    0.0000 O   0  0  0  0  0  0  0  0  0  0  0  0
    0.4512   -4.0586    0.0000 H   0  0  0  0  0  0  0  0  0  0  0  0
    1.2990    0.7500    0.0000 C   0  0  0  0  0  0  0  0  0  0  0  0
    2.7762    0.4895    0.0000 H   0  0  0  0  0  0  0  0  0  0  0  0
    1.8120    2.1595    0.0000 O   0  0  0  0  0  0  0  0  0  0  0  0
    3.2893    2.4200    0.0000 H   0  0  0  0  0  0  0  0  0  0  0  0
  1  9  1  0  0  0  0 
  1  2  1  0  0  0  0 
  1  3  1  0  0  0  0 
  1 21  1  0  0  0  0 
  3  4  1  0  0  0  0 
  5 17  1  0  0  0  0 
  5 21  1  0  0  0  0 
  5  6  1  0  0  0  0 
  5  7  1  0  0  0  0 
  7  8  1  0  0  0  0 
  9 10  1  0  0  0  0 
  9 11  1  0  0  0  0 
  9 13  1  0  0  0  0 
 11 12  1  0  0  0  0 
 13 17  1  0  0  0  0 
 13 14  1  0  0  0  0 
 13 15  1  0  0  0  0 
 15 16  1  0  0  0  0 
 17 18  1  0  0  0  0 
 17 19  1  0  0  0  0 
 19 20  1  0  0  0  0 
 21 22  1  0  0  0  0 
 21 23  1  0  0  0  0 
 23 24  1  0  0  0  0 
M  END
