
  CDK     1209201322

 17 16  0  0  0  0  0  0  0  0999 V2000
    2.5981   -0.0000    0.0000 C   0  0  0  0  0  0  0  0  0  0  0  0
    1.2990   -0.7500    0.0000 C   0  0  0  0  0  0  0  0  0  0  0  0
    3.8971   -0.7500    0.0000 C   0  0  0  0  0  0  0  0  0  0  0  0
    3.5623    1.1491    0.0000 C   0  0  0  0  0  0  0  0  0  0  0  0
    1.6339    1.1491    0.0000 C   0  0  0  0  0  0  0  0  0  0  0  0
    0.0000    0.0000    0.0000 H   0  0  0  0  0  0  0  0  0  0  0  0
    2.2632   -1.8991    0.0000 H   0  0  0  0  0  0  0  0  0  0  0  0
    0.3349   -1.8991    0.0000 H   0  0  0  0  0  0  0  0  0  0  0  0
    5.1962   -0.0000    0.0000 H   0  0  0  0  0  0  0  0  0  0  0  0
    2.9329   -1.8991    0.0000 H   0  0  0  0  0  0  0  0  0  0  0  0
    4.8613   -1.8991    0.0000 H   0  0  0  0  0  0  0  0  0  0  0  0
    5.0395    0.8886    0.0000 H   0  0  0  0  0  0  0  0  0  0  0  0
    4.0753    2.5586    0.0000 H   0  0  0  0  0  0  0  0  0  0  0  0
    2.2632    1.8991    0.0000 H   0  0  0  0  0  0  0  0  0  0  0  0
    0.1567    0.8886    0.0000 H   0  0  0  0  0  0  0  0  0  0  0  0
    2.9329    1.8991    0.0000 H   0  0  0  0  0  0  0  0  0  0  0  0
    1.1209    2.5586    0.0000 H   0  0  0  0  0  0  0  0  0  0  0  0
  1  2  1  0  0  0  0 
  1  3  1  0  0  0  0 
  1  4  1  0  0  0  0 
  1  5  1  0  0  0  0 
  2  8  1  0  0  0  0 
  2  6  1  0  0  0  0 
  2  7  1  0  0  0  0 
  3 10  1  0  0  0  0 
  3 11  1  0  0  0  0 
  3  9  1  0  0  0  0 
  4 12  1  0  0  0  0 
  4 13  1  0  0  0  0 
  4 14  1  0  0  0  0 
  5 16  1  0  0  0  0 
  5 17  1  0  0  0  0 
  5 15  1  0  0  0  0 
M  END
