
  CDK     1209201322

 19 20  0  0  0  0  0  0  0  0999 V2000
   -0.0650   -1.5000    0.0000 C   0  0  0  0  0  0  0  0  0  0  0  0
   -0.0650   -3.0000    0.0000 H   0  0  0  0  0  0  0  0  0  0  0  0
    1.2340   -0.7500    0.0000 C   0  0  0  0  0  0  0  0  0  0  0  0
    1.7470   -2.1595    0.0000 H   0  0  0  0  0  0  0  0  0  0  0  0
    2.7112   -0.4895    0.0000 H   0  0  0  0  0  0  0  0  0  0  0  0
    1.2340    0.7500    0.0000 C   0  0  0  0  0  0  0  0  0  0  0  0
    1.7470    2.1595    0.0000 H   0  0  0  0  0  0  0  0  0  0  0  0
    2.7112    0.4895    0.0000 H   0  0  0  0  0  0  0  0  0  0  0  0
   -0.0650    1.5000    0.0000 C   0  0  0  0  0  0  0  0  0  0  0  0
   -0.0650    3.0000    0.0000 H   0  0  0  0  0  0  0  0  0  0  0  0
   -1.3640    0.7500    0.0000 C   0  0  0  0  0  0  0  0  0  0  0  0
   -1.8770    2.1595    0.0000 H   0  0  0  0  0  0  0  0  0  0  0  0
   -2.8412    0.4895    0.0000 H   0  0  0  0  0  0  0  0  0  0  0  0
   -1.3640   -0.7500    0.0000 C   0  0  0  0  0  0  0  0  0  0  0  0
   -1.8770   -2.1595    0.0000 H   0  0  0  0  0  0  0  0  0  0  0  0
   -2.8412   -0.4895    0.0000 H   0  0  0  0  0  0  0  0  0  0  0  0
    0.3920   -0.0000    0.0000 C   0  0  0  0  0  0  0  0  0  0  0  0
    1.6109   -0.8742    0.0000 H   0  0  0  0  0  0  0  0  0  0  0  0
    1.6109    0.8742    0.0000 H   0  0  0  0  0  0  0  0  0  0  0  0
  1 17  1  0  0  0  0 
  1  2  1  0  0  0  0 
  1  3  1  0  0  0  0 
  1 14  1  0  0  0  0 
  3  4  1  0  0  0  0 
  3  5  1  0  0  0  0 
  3  6  1  0  0  0  0 
  6  8  1  0  0  0  0 
  6  9  1  0  0  0  0 
  6  7  1  0  0  0  0 
  9 17  1  0  0  0  0 
  9 10  1  0  0  0  0 
  9 11  1  0  0  0  0 
 11 12  1  0  0  0  0 
 11 13  1  0  0  0  0 
 11 14  1  0  0  0  0 
 14 16  1  0  0  0  0 
 14 15  1  0  0  0  0 
 17 18  1  0  0  0  0 
 17 19  1  0  0  0  0 
M  END
