
  CDK     1209201321

 31 33  0  0  0  0  0  0  0  0999 V2000
    3.5213    1.9344    0.0000 O   0  0  0  0  0  0  0  0  0  0  0  0
    4.5648    3.0119    0.0000 C   0  0  0  0  0  0  0  0  0  0  0  0
    5.8095    3.8489    0.0000 H   0  0  0  0  0  0  0  0  0  0  0  0
    2.1740    2.5938    0.0000 C   0  0  0  0  0  0  0  0  0  0  0  0
    0.7191    2.9587    0.0000 H   0  0  0  0  0  0  0  0  0  0  0  0
    2.3849    4.0789    0.0000 C   0  0  0  0  0  0  0  0  0  0  0  0
    0.8859    4.1334    0.0000 H   0  0  0  0  0  0  0  0  0  0  0  0
    2.2823    5.5754    0.0000 H   0  0  0  0  0  0  0  0  0  0  0  0
    0.1800   -0.7410    0.0000 C   0  0  0  0  0  0  0  0  0  0  0  0
    1.6030   -1.2150    0.0000 N   0  0  0  0  0  0  0  0  0  0  0  0
    2.5100   -0.0290    0.0000 C   0  0  0  0  0  0  0  0  0  0  0  0
    4.0097   -0.0601    0.0000 H   0  0  0  0  0  0  0  0  0  0  0  0
    1.6590    1.1850    0.0000 N   0  0  0  0  0  0  0  0  0  0  0  0
   -2.4010   -0.6710    0.0000 N   0  0  0  0  0  0  0  0  0  0  0  0
   -2.3590    0.8500    0.0000 C   0  0  0  0  0  0  0  0  0  0  0  0
   -3.6411    1.6286    0.0000 H   0  0  0  0  0  0  0  0  0  0  0  0
   -1.1040    1.5470    0.0000 N   0  0  0  0  0  0  0  0  0  0  0  0
    0.1800    0.7940    0.0000 C   0  0  0  0  0  0  0  0  0  0  0  0
   -1.1590   -1.4100    0.0000 C   0  0  0  0  0  0  0  0  0  0  0  0
   -1.2140   -2.9090    0.0000 N   0  0  0  0  0  0  0  0  0  0  0  0
   -2.5397   -3.6108    0.0000 H   0  0  0  0  0  0  0  0  0  0  0  0
    0.0566   -3.7061    0.0000 H   0  0  0  0  0  0  0  0  0  0  0  0
    5.2540    4.8973    0.0000 H   0  0  0  0  0  0  0  0  0  0  0  0
    3.8624    4.3373    0.0000 C   0  0  0  0  0  0  0  0  0  0  0  0
    3.4510    5.7798    0.0000 O   0  0  0  0  0  0  0  0  0  0  0  0
    4.4945    6.8573    0.0000 H   0  0  0  0  0  0  0  0  0  0  0  0
    5.5273    1.8615    0.0000 C   0  0  0  0  0  0  0  0  0  0  0  0
    4.2273    1.1133    0.0000 H   0  0  0  0  0  0  0  0  0  0  0  0
    6.0384    0.4512    0.0000 H   0  0  0  0  0  0  0  0  0  0  0  0
    7.0049    2.1199    0.0000 O   0  0  0  0  0  0  0  0  0  0  0  0
    7.9675    0.9694    0.0000 H   0  0  0  0  0  0  0  0  0  0  0  0
  1  2  1  0  0  0  0 
  1  4  1  0  0  0  0 
  2 24  1  0  0  0  0 
  2 27  1  0  0  0  0 
  2  3  1  0  0  0  0 
  4  5  1  0  0  0  0 
  4  6  1  0  0  0  0 
  4 13  1  0  0  0  0 
  6 24  1  0  0  0  0 
  6  8  1  0  0  0  0 
  6  7  1  0  0  0  0 
  9 10  1  0  0  0  0 
  9 19  1  0  0  0  0 
  9 18  1  0  0  0  0 
 10 11  1  0  0  0  0 
 11 12  1  0  0  0  0 
 11 13  1  0  0  0  0 
 13 18  1  0  0  0  0 
 14 19  1  0  0  0  0 
 14 15  1  0  0  0  0 
 15 16  1  0  0  0  0 
 15 17  1  0  0  0  0 
 17 18  1  0  0  0  0 
 19 20  1  0  0  0  0 
 20 21  1  0  0  0  0 
 20 22  1  0  0  0  0 
 23 24  1  0  0  0  0 
 24 25  1  0  0  0  0 
 25 26  1  0  0  0  0 
 27 28  1  0  0  0  0 
 27 29  1  0  0  0  0 
 27 30  1  0  0  0  0 
 30 31  1  0  0  0  0 
M  END
