
  CDK     1209201321

 32 34  0  0  0  0  0  0  0  0999 V2000
    0.8437   -2.8705    0.0000 O   0  0  0  0  0  0  0  0  0  0  0  0
    0.6213   -4.3540    0.0000 C   0  0  0  0  0  0  0  0  0  0  0  0
   -0.8307   -3.9778    0.0000 H   0  0  0  0  0  0  0  0  0  0  0  0
    2.3232   -2.6236    0.0000 C   0  0  0  0  0  0  0  0  0  0  0  0
    3.7191   -2.0745    0.0000 H   0  0  0  0  0  0  0  0  0  0  0  0
    3.0153   -3.9544    0.0000 C   0  0  0  0  0  0  0  0  0  0  0  0
    4.2665   -3.1271    0.0000 H   0  0  0  0  0  0  0  0  0  0  0  0
    3.9689   -5.1123    0.0000 H   0  0  0  0  0  0  0  0  0  0  0  0
    1.9230   -1.1780    0.0000 N   0  0  0  0  0  0  0  0  0  0  0  0
    0.5890   -0.6650    0.0000 C   0  0  0  0  0  0  0  0  0  0  0  0
   -0.8860   -1.3700    0.0000 N   0  0  0  0  0  0  0  0  0  0  0  0
   -2.0830   -0.5750    0.0000 C   0  0  0  0  0  0  0  0  0  0  0  0
   -2.0310    0.9240    0.0000 N   0  0  0  0  0  0  0  0  0  0  0  0
   -3.3034    1.7184    0.0000 H   0  0  0  0  0  0  0  0  0  0  0  0
   -3.4170   -1.2609    0.0000 N   0  0  0  0  0  0  0  0  0  0  0  0
   -4.6780   -0.4486    0.0000 H   0  0  0  0  0  0  0  0  0  0  0  0
   -3.4900   -2.7591    0.0000 H   0  0  0  0  0  0  0  0  0  0  0  0
   -0.7070    1.6290    0.0000 C   0  0  0  0  0  0  0  0  0  0  0  0
   -0.6550    3.1281    0.0000 O   0  0  0  0  0  0  0  0  0  0  0  0
    0.5650    0.8340    0.0000 C   0  0  0  0  0  0  0  0  0  0  0  0
    2.0080    1.2480    0.0000 N   0  0  0  0  0  0  0  0  0  0  0  0
    2.8470    0.0040    0.0000 C   0  0  0  0  0  0  0  0  0  0  0  0
    4.3461   -0.0486    0.0000 H   0  0  0  0  0  0  0  0  0  0  0  0
    1.1569   -6.2886    0.0000 H   0  0  0  0  0  0  0  0  0  0  0  0
    1.9634   -5.0239    0.0000 C   0  0  0  0  0  0  0  0  0  0  0  0
    3.1369   -5.9581    0.0000 O   0  0  0  0  0  0  0  0  0  0  0  0
    2.9146   -7.4416    0.0000 H   0  0  0  0  0  0  0  0  0  0  0  0
    0.0954   -5.7587    0.0000 C   0  0  0  0  0  0  0  0  0  0  0  0
   -1.1967   -4.9969    0.0000 H   0  0  0  0  0  0  0  0  0  0  0  0
   -0.8793   -6.8989    0.0000 H   0  0  0  0  0  0  0  0  0  0  0  0
    1.0490   -6.9166    0.0000 O   0  0  0  0  0  0  0  0  0  0  0  0
    0.5231   -8.3214    0.0000 H   0  0  0  0  0  0  0  0  0  0  0  0
  1  2  1  0  0  0  0 
  1  4  1  0  0  0  0 
  2 25  1  0  0  0  0 
  2  3  1  0  0  0  0 
  2 28  1  0  0  0  0 
  4  5  1  0  0  0  0 
  4  6  1  0  0  0  0 
  4  9  1  0  0  0  0 
  6  8  1  0  0  0  0 
  6 25  1  0  0  0  0 
  6  7  1  0  0  0  0 
  9 10  1  0  0  0  0 
  9 22  1  0  0  0  0 
 10 11  1  0  0  0  0 
 10 20  1  0  0  0  0 
 11 12  1  0  0  0  0 
 12 13  1  0  0  0  0 
 12 15  1  0  0  0  0 
 13 18  1  0  0  0  0 
 13 14  1  0  0  0  0 
 15 16  1  0  0  0  0 
 15 17  1  0  0  0  0 
 18 19  1  0  0  0  0 
 18 20  1  0  0  0  0 
 20 21  1  0  0  0  0 
 21 22  1  0  0  0  0 
 22 23  1  0  0  0  0 
 24 25  1  0  0  0  0 
 25 26  1  0  0  0  0 
 26 27  1  0  0  0  0 
 28 29  1  0  0  0  0 
 28 30  1  0  0  0  0 
 28 31  1  0  0  0  0 
 31 32  1  0  0  0  0 
M  END
