
  CDK     1209201322

 26 26  0  0  0  0  0  0  0  0999 V2000
   -0.3770   -0.7570    0.0000 N   0  0  0  0  0  0  0  0  0  0  0  0
    0.8360    0.1250    0.0000 C   0  0  0  0  0  0  0  0  0  0  0  0
    0.3730    1.5510    0.0000 C   0  0  0  0  0  0  0  0  0  0  0  0
   -1.1270    1.5510    0.0000 C   0  0  0  0  0  0  0  0  0  0  0  0
   -1.5910    0.1250    0.0000 C   0  0  0  0  0  0  0  0  0  0  0  0
   -0.3767   -2.2570    0.0000 C   0  0  0  0  0  3  0  0  0  0  0  0
    0.9225   -3.0067    0.0000 O   0  0  0  0  0  1  0  0  0  0  0  0
    1.5862   -1.1739    0.0000 C   0  0  0  0  0  3  0  0  0  0  0  0
    2.2063    0.7351    0.0000 H   0  0  0  0  0  0  0  0  0  0  0  0
    0.2163    3.0428    0.0000 H   0  0  0  0  0  0  0  0  0  0  0  0
    1.8403    1.8627    0.0000 H   0  0  0  0  0  0  0  0  0  0  0  0
   -0.9700    3.0428    0.0000 H   0  0  0  0  0  0  0  0  0  0  0  0
   -2.5941    1.8633    0.0000 H   0  0  0  0  0  0  0  0  0  0  0  0
   -2.9611    0.7355    0.0000 H   0  0  0  0  0  0  0  0  0  0  0  0
   -2.3412   -1.1739    0.0000 H   0  0  0  0  0  0  0  0  0  0  0  0
   -1.6756   -3.0073    0.0000 C   0  0  0  0  0  0  0  0  0  0  0  0
   -1.6753   -4.5073    0.0000 H   0  0  0  0  0  0  0  0  0  0  0  0
   -2.1889   -1.5978    0.0000 H   0  0  0  0  0  0  0  0  0  0  0  0
   -3.1528   -3.2680    0.0000 H   0  0  0  0  0  0  0  0  0  0  0  0
    0.8365   -2.4731    0.0000 O   0  0  0  0  0  1  0  0  0  0  0  0
    3.0862   -1.1736    0.0000 N   0  0  0  0  0  0  0  0  0  0  0  0
    3.8360    0.1255    0.0000 H   0  0  0  0  0  0  0  0  0  0  0  0
    3.8365   -2.4725    0.0000 C   0  0  0  0  0  0  0  0  0  0  0  0
    5.3365   -2.4723    0.0000 H   0  0  0  0  0  0  0  0  0  0  0  0
    2.4270   -2.9858    0.0000 H   0  0  0  0  0  0  0  0  0  0  0  0
    4.0972   -3.9497    0.0000 H   0  0  0  0  0  0  0  0  0  0  0  0
  1  2  1  0  0  0  0 
  1  5  1  0  0  0  0 
  1  6  1  0  0  0  0 
  2  8  1  0  0  0  0 
  2  3  1  0  0  0  0 
  2  9  1  0  0  0  0 
  3 11  1  0  0  0  0 
  3  4  1  0  0  0  0 
  3 10  1  0  0  0  0 
  4 12  1  0  0  0  0 
  4  5  1  0  0  0  0 
  4 13  1  0  0  0  0 
  5 14  1  0  0  0  0 
  5 15  1  0  0  0  0 
  6 16  1  0  0  0  0 
  6  7  1  0  0  0  0 
  8 20  1  0  0  0  0 
  8 21  1  0  0  0  0 
 16 17  1  0  0  0  0 
 16 18  1  0  0  0  0 
 16 19  1  0  0  0  0 
 21 22  1  0  0  0  0 
 21 23  1  0  0  0  0 
 23 24  1  0  0  0  0 
 23 25  1  0  0  0  0 
 23 26  1  0  0  0  0 
M  END
