
  CDK     1209201322

 18 18  0  0  0  0  0  0  0  0999 V2000
   -0.0000   -1.5000    0.0000 N   0  0  0  0  0  0  0  0  0  0  0  0
   -0.9642   -2.6491    0.0000 H   0  0  0  0  0  0  0  0  0  0  0  0
    0.9642   -2.6491    0.0000 H   0  0  0  0  0  0  0  0  0  0  0  0
   -1.2990   -0.7500    0.0000 C   0  0  0  0  0  0  0  0  0  0  0  0
   -2.7762   -0.4895    0.0000 H   0  0  0  0  0  0  0  0  0  0  0  0
   -1.8120   -2.1595    0.0000 H   0  0  0  0  0  0  0  0  0  0  0  0
    1.2990   -0.7500    0.0000 C   0  0  0  0  0  0  0  0  0  0  0  0
    1.8120   -2.1595    0.0000 H   0  0  0  0  0  0  0  0  0  0  0  0
    2.7762   -0.4895    0.0000 H   0  0  0  0  0  0  0  0  0  0  0  0
   -1.2990    0.7500    0.0000 C   0  0  0  0  0  0  0  0  0  0  0  0
   -2.7762    0.4895    0.0000 H   0  0  0  0  0  0  0  0  0  0  0  0
   -1.8120    2.1595    0.0000 H   0  0  0  0  0  0  0  0  0  0  0  0
   -0.0000    1.5000    0.0000 C   0  0  0  0  0  0  0  0  0  0  0  0
    0.9642    2.6491    0.0000 H   0  0  0  0  0  0  0  0  0  0  0  0
   -0.9642    2.6491    0.0000 H   0  0  0  0  0  0  0  0  0  0  0  0
    1.2990    0.7500    0.0000 C   0  0  0  0  0  0  0  0  0  0  0  0
    2.7762    0.4895    0.0000 H   0  0  0  0  0  0  0  0  0  0  0  0
    1.8120    2.1595    0.0000 H   0  0  0  0  0  0  0  0  0  0  0  0
  1  2  1  0  0  0  0 
  1  3  1  0  0  0  0 
  1  4  1  0  0  0  0 
  1  7  1  0  0  0  0 
  4 10  1  0  0  0  0 
  4  5  1  0  0  0  0 
  4  6  1  0  0  0  0 
  7 16  1  0  0  0  0 
  7  8  1  0  0  0  0 
  7  9  1  0  0  0  0 
 10 12  1  0  0  0  0 
 10 11  1  0  0  0  0 
 10 13  1  0  0  0  0 
 13 16  1  0  0  0  0 
 13 14  1  0  0  0  0 
 13 15  1  0  0  0  0 
 16 17  1  0  0  0  0 
 16 18  1  0  0  0  0 
M  END
