
  CDK     1209201322

 22 23  0  0  0  0  0  0  0  0999 V2000
   -0.1590   -0.7980    0.0000 N   0  0  0  0  0  0  0  0  0  0  0  0
   -0.1994   -2.2975    0.0000 H   0  0  0  0  0  0  0  0  0  0  0  0
   -1.5450   -1.3710    0.0000 C   0  0  0  0  0  0  0  0  0  0  0  0
   -1.2744   -2.8464    0.0000 H   0  0  0  0  0  0  0  0  0  0  0  0
   -3.0444   -1.3272    0.0000 H   0  0  0  0  0  0  0  0  0  0  0  0
   -0.3330    1.0990    0.0000 C   0  0  0  0  0  0  0  0  0  0  0  0
   -1.8292    0.9918    0.0000 H   0  0  0  0  0  0  0  0  0  0  0  0
   -1.1900    2.3301    0.0000 H   0  0  0  0  0  0  0  0  0  0  0  0
    1.3390   -1.5140    0.0000 C   0  0  0  0  0  0  0  0  0  0  0  0
    0.8132   -2.9188    0.0000 H   0  0  0  0  0  0  0  0  0  0  0  0
    2.7845   -1.9147    0.0000 H   0  0  0  0  0  0  0  0  0  0  0  0
   -1.2090    0.0030    0.0000 C   0  0  0  0  0  0  0  0  0  0  0  0
   -1.4684    1.4804    0.0000 H   0  0  0  0  0  0  0  0  0  0  0  0
   -2.7082    0.0525    0.0000 H   0  0  0  0  0  0  0  0  0  0  0  0
    0.1580    0.5500    0.0000 C   0  0  0  0  0  0  0  0  0  0  0  0
    1.4303    1.3445    0.0000 H   0  0  0  0  0  0  0  0  0  0  0  0
    0.1580    2.1810    0.0000 C   0  0  0  0  0  0  0  0  0  0  0  0
    1.5501    2.7396    0.0000 H   0  0  0  0  0  0  0  0  0  0  0  0
   -0.8789    3.2649    0.0000 H   0  0  0  0  0  0  0  0  0  0  0  0
    1.5910   -0.1500    0.0000 C   0  0  0  0  0  0  0  0  0  0  0  0
    3.0353   -0.5548    0.0000 H   0  0  0  0  0  0  0  0  0  0  0  0
    2.1248    1.2518    0.0000 H   0  0  0  0  0  0  0  0  0  0  0  0
  1  9  1  0  0  0  0 
  1  2  1  0  0  0  0 
  1  3  1  0  0  0  0 
  1  6  1  0  0  0  0 
  3 12  1  0  0  0  0 
  3  5  1  0  0  0  0 
  3  4  1  0  0  0  0 
  6  8  1  0  0  0  0 
  6 17  1  0  0  0  0 
  6  7  1  0  0  0  0 
  9 10  1  0  0  0  0 
  9 11  1  0  0  0  0 
  9 20  1  0  0  0  0 
 12 13  1  0  0  0  0 
 12 14  1  0  0  0  0 
 12 15  1  0  0  0  0 
 15 16  1  0  0  0  0 
 15 17  1  0  0  0  0 
 15 20  1  0  0  0  0 
 17 18  1  0  0  0  0 
 17 19  1  0  0  0  0 
 20 21  1  0  0  0  0 
 20 22  1  0  0  0  0 
M  END
