
  CDK     1209201322

 19 20  0  0  0  0  0  0  0  0999 V2000
    0.0000    0.7500    0.0000 C   0  0  0  0  0  0  0  0  0  0  0  0
    0.0000    2.2500    0.0000 H   0  0  0  0  0  0  0  0  0  0  0  0
    0.0000   -0.7500    0.0000 C   0  0  0  0  0  0  0  0  0  0  0  0
   -0.0000   -2.2500    0.0000 H   0  0  0  0  0  0  0  0  0  0  0  0
    1.4270    1.2140    0.0000 O   0  0  0  0  0  0  0  0  0  0  0  0
    2.3080    0.0000    0.0000 C   0  0  0  0  0  0  0  0  0  0  0  0
    3.4229    1.0035    0.0000 H   0  0  0  0  0  0  0  0  0  0  0  0
    3.4229   -1.0035    0.0000 H   0  0  0  0  0  0  0  0  0  0  0  0
   -1.4270    1.2140    0.0000 O   0  0  0  0  0  0  0  0  0  0  0  0
   -2.3080    0.0000    0.0000 C   0  0  0  0  0  0  0  0  0  0  0  0
   -3.4229    1.0035    0.0000 H   0  0  0  0  0  0  0  0  0  0  0  0
   -3.4229   -1.0035    0.0000 H   0  0  0  0  0  0  0  0  0  0  0  0
   -1.4270   -1.2140    0.0000 C   0  0  0  0  0  0  0  0  0  0  0  0
   -2.7263   -1.9636    0.0000 H   0  0  0  0  0  0  0  0  0  0  0  0
   -0.8170   -2.5843    0.0000 H   0  0  0  0  0  0  0  0  0  0  0  0
    1.4270   -1.2140    0.0000 C   0  0  0  0  0  0  0  0  0  0  0  0
    0.8170   -2.5843    0.0000 H   0  0  0  0  0  0  0  0  0  0  0  0
    2.7263   -1.9636    0.0000 O   0  0  0  0  0  0  0  0  0  0  0  0
    4.0251   -1.2132    0.0000 H   0  0  0  0  0  0  0  0  0  0  0  0
  1  9  1  0  0  0  0 
  1  2  1  0  0  0  0 
  1  3  1  0  0  0  0 
  1  5  1  0  0  0  0 
  3 16  1  0  0  0  0 
  3  4  1  0  0  0  0 
  3 13  1  0  0  0  0 
  5  6  1  0  0  0  0 
  6 16  1  0  0  0  0 
  6  8  1  0  0  0  0 
  6  7  1  0  0  0  0 
  9 10  1  0  0  0  0 
 10 11  1  0  0  0  0 
 10 12  1  0  0  0  0 
 10 13  1  0  0  0  0 
 13 14  1  0  0  0  0 
 13 15  1  0  0  0  0 
 16 17  1  0  0  0  0 
 16 18  1  0  0  0  0 
 18 19  1  0  0  0  0 
M  END
