
  CDK     1209201322

 24 25  0  0  0  0  0  0  0  0999 V2000
    1.9642   -1.6929    0.0000 N   0  0  0  0  0  0  0  0  0  0  0  0
    1.2143   -2.9921    0.0000 C   0  0  0  0  0  0  0  0  0  0  0  0
   -0.2857   -2.9923    0.0000 H   0  0  0  0  0  0  0  0  0  0  0  0
    3.4642   -1.6927    0.0000 C   0  0  0  0  0  0  0  0  0  0  0  0
    4.2140   -0.3936    0.0000 O   0  0  0  0  0  0  0  0  0  0  0  0
    4.2143   -2.9917    0.0000 N   0  0  0  0  0  0  0  0  0  0  0  0
    3.4645   -4.2908    0.0000 C   0  0  0  0  0  0  0  0  0  0  0  0
    4.2147   -5.5898    0.0000 N   0  0  0  0  0  0  0  0  0  0  0  0
    5.7147   -5.5896    0.0000 H   0  0  0  0  0  0  0  0  0  0  0  0
    3.4649   -6.8889    0.0000 H   0  0  0  0  0  0  0  0  0  0  0  0
    1.9645   -4.2910    0.0000 C   0  0  0  0  0  0  0  0  0  0  0  0
    1.2147   -5.5902    0.0000 H   0  0  0  0  0  0  0  0  0  0  0  0
   -0.0000   -1.2760    0.0000 O   0  0  0  0  0  0  0  0  0  0  0  0
    1.2140   -0.3940    0.0000 C   0  0  0  0  0  0  0  0  0  0  0  0
    2.5841    0.2165    0.0000 H   0  0  0  0  0  0  0  0  0  0  0  0
   -1.2130   -0.3940    0.0000 C   0  0  0  0  0  0  0  0  0  0  0  0
   -2.5833    0.2161    0.0000 H   0  0  0  0  0  0  0  0  0  0  0  0
   -1.9632   -1.6929    0.0000 H   0  0  0  0  0  0  0  0  0  0  0  0
    0.7500    1.0320    0.0000 C   0  0  0  0  0  0  0  0  0  0  0  0
    2.2171    1.3443    0.0000 H   0  0  0  0  0  0  0  0  0  0  0  0
    0.5930    2.5238    0.0000 H   0  0  0  0  0  0  0  0  0  0  0  0
   -0.7500    1.0320    0.0000 C   0  0  0  0  0  0  0  0  0  0  0  0
   -2.2173    1.3437    0.0000 H   0  0  0  0  0  0  0  0  0  0  0  0
   -0.5933    2.5238    0.0000 H   0  0  0  0  0  0  0  0  0  0  0  0
  1  2  1  0  0  0  0 
  1  4  1  0  0  0  0 
  1 14  1  0  0  0  0 
  2 11  1  0  0  0  0 
  2  3  1  0  0  0  0 
  4  5  1  0  0  0  0 
  4  6  1  0  0  0  0 
  6  7  1  0  0  0  0 
  7  8  1  0  0  0  0 
  7 11  1  0  0  0  0 
  8  9  1  0  0  0  0 
  8 10  1  0  0  0  0 
 11 12  1  0  0  0  0 
 13 16  1  0  0  0  0 
 13 14  1  0  0  0  0 
 14 19  1  0  0  0  0 
 14 15  1  0  0  0  0 
 16 17  1  0  0  0  0 
 16 18  1  0  0  0  0 
 16 22  1  0  0  0  0 
 19 20  1  0  0  0  0 
 19 22  1  0  0  0  0 
 19 21  1  0  0  0  0 
 22 24  1  0  0  0  0 
 22 23  1  0  0  0  0 
M  END
