
  CDK     1209201322

 27 29  0  0  0  0  0  0  0  0999 V2000
    1.9230   -1.1780    0.0000 N   0  0  0  0  0  0  0  0  0  0  0  0
    0.5890   -0.6650    0.0000 C   0  0  0  0  0  0  0  0  0  0  0  0
   -0.8860   -1.3700    0.0000 N   0  0  0  0  0  0  0  0  0  0  0  0
   -2.0830   -0.5750    0.0000 C   0  0  0  0  0  0  0  0  0  0  0  0
   -2.0310    0.9240    0.0000 N   0  0  0  0  0  0  0  0  0  0  0  0
   -3.3034    1.7184    0.0000 H   0  0  0  0  0  0  0  0  0  0  0  0
   -3.4170   -1.2609    0.0000 N   0  0  0  0  0  0  0  0  0  0  0  0
   -4.6780   -0.4486    0.0000 H   0  0  0  0  0  0  0  0  0  0  0  0
   -3.4900   -2.7591    0.0000 H   0  0  0  0  0  0  0  0  0  0  0  0
   -0.7070    1.6290    0.0000 C   0  0  0  0  0  0  0  0  0  0  0  0
   -0.6550    3.1281    0.0000 O   0  0  0  0  0  0  0  0  0  0  0  0
    0.5650    0.8340    0.0000 C   0  0  0  0  0  0  0  0  0  0  0  0
    2.0080    1.2480    0.0000 N   0  0  0  0  0  0  0  0  0  0  0  0
    2.8470    0.0040    0.0000 C   0  0  0  0  0  0  0  0  0  0  0  0
    4.3461   -0.0486    0.0000 H   0  0  0  0  0  0  0  0  0  0  0  0
    3.7191   -2.0745    0.0000 O   0  0  0  0  0  0  0  0  0  0  0  0
    2.3232   -2.6236    0.0000 C   0  0  0  0  0  0  0  0  0  0  0  0
    0.8437   -2.8705    0.0000 H   0  0  0  0  0  0  0  0  0  0  0  0
    4.6727   -3.2323    0.0000 C   0  0  0  0  0  0  0  0  0  0  0  0
    5.8462   -4.1666    0.0000 H   0  0  0  0  0  0  0  0  0  0  0  0
    5.7245   -2.1629    0.0000 H   0  0  0  0  0  0  0  0  0  0  0  0
    2.4141   -4.1209    0.0000 C   0  0  0  0  0  0  0  0  0  0  0  0
    2.1918   -5.6043    0.0000 H   0  0  0  0  0  0  0  0  0  0  0  0
    0.9156   -4.0548    0.0000 H   0  0  0  0  0  0  0  0  0  0  0  0
    3.8662   -4.4971    0.0000 C   0  0  0  0  0  0  0  0  0  0  0  0
    5.2083   -5.1670    0.0000 H   0  0  0  0  0  0  0  0  0  0  0  0
    3.3403   -5.9018    0.0000 H   0  0  0  0  0  0  0  0  0  0  0  0
  1 17  1  0  0  0  0 
  1  2  1  0  0  0  0 
  1 14  1  0  0  0  0 
  2  3  1  0  0  0  0 
  2 12  1  0  0  0  0 
  3  4  1  0  0  0  0 
  4  5  1  0  0  0  0 
  4  7  1  0  0  0  0 
  5 10  1  0  0  0  0 
  5  6  1  0  0  0  0 
  7  8  1  0  0  0  0 
  7  9  1  0  0  0  0 
 10 11  1  0  0  0  0 
 10 12  1  0  0  0  0 
 12 13  1  0  0  0  0 
 13 14  1  0  0  0  0 
 14 15  1  0  0  0  0 
 16 17  1  0  0  0  0 
 16 19  1  0  0  0  0 
 17 18  1  0  0  0  0 
 17 22  1  0  0  0  0 
 19 25  1  0  0  0  0 
 19 20  1  0  0  0  0 
 19 21  1  0  0  0  0 
 22 24  1  0  0  0  0 
 22 23  1  0  0  0  0 
 22 25  1  0  0  0  0 
 25 27  1  0  0  0  0 
 25 26  1  0  0  0  0 
M  END
