
  CDK     1209201321

 17 17  0  0  0  0  0  0  0  0999 V2000
   -0.0000   -1.2760    0.0000 O   0  0  0  0  0  0  0  0  0  0  0  0
   -1.2130   -0.3940    0.0000 C   0  0  0  0  0  0  0  0  0  0  0  0
   -2.5833    0.2161    0.0000 H   0  0  0  0  0  0  0  0  0  0  0  0
   -1.9632   -1.6929    0.0000 H   0  0  0  0  0  0  0  0  0  0  0  0
    1.2140   -0.3940    0.0000 C   0  0  0  0  0  0  0  0  0  0  0  0
    1.9642   -1.6929    0.0000 H   0  0  0  0  0  0  0  0  0  0  0  0
   -0.7500    1.0320    0.0000 C   0  0  0  0  0  0  0  0  0  0  0  0
   -0.5933    2.5238    0.0000 H   0  0  0  0  0  0  0  0  0  0  0  0
   -2.2173    1.3437    0.0000 H   0  0  0  0  0  0  0  0  0  0  0  0
    2.2171    1.3443    0.0000 H   0  0  0  0  0  0  0  0  0  0  0  0
    0.7500    1.0320    0.0000 C   0  0  0  0  0  0  0  0  0  0  0  0
    0.5930    2.5238    0.0000 O   0  0  0  0  0  0  0  0  0  0  0  0
    1.8064    3.4056    0.0000 H   0  0  0  0  0  0  0  0  0  0  0  0
    2.5841    0.2165    0.0000 C   0  0  0  0  0  0  0  0  0  0  0  0
    3.7979   -0.6649    0.0000 H   0  0  0  0  0  0  0  0  0  0  0  0
    3.6629    1.2588    0.0000 H   0  0  0  0  0  0  0  0  0  0  0  0
    1.7450    1.4598    0.0000 H   0  0  0  0  0  0  0  0  0  0  0  0
  1  2  1  0  0  0  0 
  1  5  1  0  0  0  0 
  2  3  1  0  0  0  0 
  2  4  1  0  0  0  0 
  2  7  1  0  0  0  0 
  5 11  1  0  0  0  0 
  5  6  1  0  0  0  0 
  5 14  1  0  0  0  0 
  7  8  1  0  0  0  0 
  7  9  1  0  0  0  0 
  7 11  1  0  0  0  0 
 10 11  1  0  0  0  0 
 11 12  1  0  0  0  0 
 12 13  1  0  0  0  0 
 14 16  1  0  0  0  0 
 14 17  1  0  0  0  0 
 14 15  1  0  0  0  0 
M  END
