
  CDK     1209201322

 23 23  0  0  0  0  0  0  0  0999 V2000
   -0.3710   -1.7140    0.0000 N   0  0  0  0  0  0  0  0  0  0  0  0
    0.9280   -0.9640    0.0000 C   0  0  0  0  0  0  0  0  0  0  0  0
    0.9280    0.5360    0.0000 C   0  0  0  0  0  0  0  0  0  0  0  0
   -0.3710    1.2860    0.0000 C   0  0  0  0  0  0  0  0  0  0  0  0
   -1.6700   -0.9640    0.0000 C   0  0  0  0  0  0  0  0  0  0  0  0
   -1.6700    0.5360    0.0000 C   0  0  0  0  0  0  0  0  0  0  0  0
    2.2270   -1.7140    0.0000 H   0  0  0  0  0  0  0  0  0  0  0  0
   -0.3710    2.7860    0.0000 H   0  0  0  0  0  0  0  0  0  0  0  0
   -2.9690    1.2860    0.0000 H   0  0  0  0  0  0  0  0  0  0  0  0
   -2.9690   -1.7140    0.0000 H   0  0  0  0  0  0  0  0  0  0  0  0
    2.2270    1.2860    0.0000 C   0  0  0  0  0  0  0  0  0  0  0  0
    3.1912    2.4351    0.0000 H   0  0  0  0  0  0  0  0  0  0  0  0
    1.2629    2.4351    0.0000 H   0  0  0  0  0  0  0  0  0  0  0  0
    3.5261    0.5360    0.0000 C   0  0  0  0  0  0  0  0  0  0  0  0
    4.4903   -0.6131    0.0000 H   0  0  0  0  0  0  0  0  0  0  0  0
    2.5619   -0.6131    0.0000 H   0  0  0  0  0  0  0  0  0  0  0  0
    4.8251    1.2860    0.0000 C   0  0  0  0  0  0  0  0  0  0  0  0
    5.7893    2.4350    0.0000 H   0  0  0  0  0  0  0  0  0  0  0  0
    3.8609    2.4350    0.0000 H   0  0  0  0  0  0  0  0  0  0  0  0
    6.1242    0.5360    0.0000 C   0  0  0  0  0  0  0  0  0  0  0  0
    7.4232    1.2860    0.0000 H   0  0  0  0  0  0  0  0  0  0  0  0
    5.1600   -0.6131    0.0000 H   0  0  0  0  0  0  0  0  0  0  0  0
    7.0883   -0.6131    0.0000 H   0  0  0  0  0  0  0  0  0  0  0  0
  1  2  1  0  0  0  0 
  1  5  1  0  0  0  0 
  2  3  1  0  0  0  0 
  2  7  1  0  0  0  0 
  3 11  1  0  0  0  0 
  3  4  1  0  0  0  0 
  4  8  1  0  0  0  0 
  4  6  1  0  0  0  0 
  5 10  1  0  0  0  0 
  5  6  1  0  0  0  0 
  6  9  1  0  0  0  0 
 11 12  1  0  0  0  0 
 11 13  1  0  0  0  0 
 11 14  1  0  0  0  0 
 14 16  1  0  0  0  0 
 14 17  1  0  0  0  0 
 14 15  1  0  0  0  0 
 17 18  1  0  0  0  0 
 17 19  1  0  0  0  0 
 17 20  1  0  0  0  0 
 20 21  1  0  0  0  0 
 20 22  1  0  0  0  0 
 20 23  1  0  0  0  0 
M  END
