
  CDK     1209201321

 30 30  0  0  0  0  0  0  0  0999 V2000
    2.5602    0.7395    0.0000 C   0  0  0  0  0  3  0  0  0  0  0  0
    3.5244    1.8886    0.0000 O   0  0  0  0  0  1  0  0  0  0  0  0
    3.0732   -0.6700    0.0000 O   0  0  0  0  0  1  0  0  0  0  0  0
    1.0830    1.0000    0.0000 C   0  0  0  0  0  0  0  0  0  0  0  0
    1.5960    2.4095    0.0000 O   0  0  0  0  0  0  0  0  0  0  0  0
    3.0733    2.6700    0.0000 H   0  0  0  0  0  0  0  0  0  0  0  0
   -1.5160    1.0000    0.0000 C   0  0  0  0  0  0  0  0  0  0  0  0
   -2.0287    2.4096    0.0000 H   0  0  0  0  0  0  0  0  0  0  0  0
   -0.2160    1.7500    0.0000 O   0  0  0  0  0  0  0  0  0  0  0  0
    1.0830   -0.5000    0.0000 C   0  0  0  0  0  0  0  0  0  0  0  0
    2.5602   -0.2395    0.0000 H   0  0  0  0  0  0  0  0  0  0  0  0
    1.5960   -1.9095    0.0000 O   0  0  0  0  0  0  0  0  0  0  0  0
    3.0733   -2.1700    0.0000 H   0  0  0  0  0  0  0  0  0  0  0  0
   -0.2160   -1.2500    0.0000 C   0  0  0  0  0  0  0  0  0  0  0  0
    0.7483   -2.3990    0.0000 H   0  0  0  0  0  0  0  0  0  0  0  0
   -1.1799   -2.3993    0.0000 O   0  0  0  0  0  0  0  0  0  0  0  0
   -0.6666   -3.8087    0.0000 H   0  0  0  0  0  0  0  0  0  0  0  0
   -1.5160   -0.5000    0.0000 C   0  0  0  0  0  0  0  0  0  0  0  0
   -2.9932   -0.2397    0.0000 H   0  0  0  0  0  0  0  0  0  0  0  0
   -2.0287   -1.9096    0.0000 O   0  0  0  0  0  0  0  0  0  0  0  0
   -3.5059   -2.1704    0.0000 H   0  0  0  0  0  0  0  0  0  0  0  0
   -2.9932    0.7397    0.0000 C   0  0  0  0  0  0  0  0  0  0  0  0
   -2.4804   -0.6699    0.0000 H   0  0  0  0  0  0  0  0  0  0  0  0
   -4.2924   -0.0102    0.0000 O   0  0  0  0  0  0  0  0  0  0  0  0
   -5.5913    0.7400    0.0000 H   0  0  0  0  0  0  0  0  0  0  0  0
   -3.9573    1.8889    0.0000 C   0  0  0  0  0  0  0  0  0  0  0  0
   -2.6582    2.6387    0.0000 H   0  0  0  0  0  0  0  0  0  0  0  0
   -4.4702    3.2984    0.0000 H   0  0  0  0  0  0  0  0  0  0  0  0
   -5.4345    1.6285    0.0000 O   0  0  0  0  0  0  0  0  0  0  0  0
   -6.3986    2.7777    0.0000 H   0  0  0  0  0  0  0  0  0  0  0  0
  1  2  1  0  0  0  0 
  1  3  1  0  0  0  0 
  1  4  1  0  0  0  0 
  4 10  1  0  0  0  0 
  4  5  1  0  0  0  0 
  4  9  1  0  0  0  0 
  5  6  1  0  0  0  0 
  7  8  1  0  0  0  0 
  7  9  1  0  0  0  0 
  7 18  1  0  0  0  0 
  7 22  1  0  0  0  0 
 10 12  1  0  0  0  0 
 10 11  1  0  0  0  0 
 10 14  1  0  0  0  0 
 12 13  1  0  0  0  0 
 14 16  1  0  0  0  0 
 14 18  1  0  0  0  0 
 14 15  1  0  0  0  0 
 16 17  1  0  0  0  0 
 18 19  1  0  0  0  0 
 18 20  1  0  0  0  0 
 20 21  1  0  0  0  0 
 22 24  1  0  0  0  0 
 22 26  1  0  0  0  0 
 22 23  1  0  0  0  0 
 24 25  1  0  0  0  0 
 26 27  1  0  0  0  0 
 26 28  1  0  0  0  0 
 26 29  1  0  0  0  0 
 29 30  1  0  0  0  0 
M  END
