
  CDK     1209201322

 20 20  0  0  0  0  0  0  0  0999 V2000
    1.0390    1.2000    0.0000 C   0  0  0  0  0  0  0  0  0  0  0  0
    2.5162    0.9395    0.0000 H   0  0  0  0  0  0  0  0  0  0  0  0
    1.5520    2.6095    0.0000 O   0  0  0  0  0  0  0  0  0  0  0  0
    3.0293    2.8700    0.0000 H   0  0  0  0  0  0  0  0  0  0  0  0
   -1.5590    1.2000    0.0000 C   0  0  0  0  0  0  0  0  0  0  0  0
   -2.0720    2.6095    0.0000 H   0  0  0  0  0  0  0  0  0  0  0  0
   -3.0362    0.9395    0.0000 H   0  0  0  0  0  0  0  0  0  0  0  0
   -0.2600    1.9500    0.0000 O   0  0  0  0  0  0  0  0  0  0  0  0
    1.0390   -0.3000    0.0000 C   0  0  0  0  0  0  0  0  0  0  0  0
    1.5520   -1.7095    0.0000 H   0  0  0  0  0  0  0  0  0  0  0  0
    2.5162   -0.0395    0.0000 O   0  0  0  0  0  0  0  0  0  0  0  0
    3.4804   -1.1886    0.0000 H   0  0  0  0  0  0  0  0  0  0  0  0
   -0.2600   -1.0500    0.0000 C   0  0  0  0  0  0  0  0  0  0  0  0
   -1.2242   -2.1991    0.0000 H   0  0  0  0  0  0  0  0  0  0  0  0
    0.7042   -2.1991    0.0000 O   0  0  0  0  0  0  0  0  0  0  0  0
    0.1912   -3.6086    0.0000 H   0  0  0  0  0  0  0  0  0  0  0  0
   -1.5590   -0.3000    0.0000 C   0  0  0  0  0  0  0  0  0  0  0  0
   -3.0362   -0.0395    0.0000 H   0  0  0  0  0  0  0  0  0  0  0  0
   -2.0720   -1.7095    0.0000 O   0  0  0  0  0  0  0  0  0  0  0  0
   -3.5493   -1.9700    0.0000 H   0  0  0  0  0  0  0  0  0  0  0  0
  1  8  1  0  0  0  0 
  1  9  1  0  0  0  0 
  1  2  1  0  0  0  0 
  1  3  1  0  0  0  0 
  3  4  1  0  0  0  0 
  5  8  1  0  0  0  0 
  5 17  1  0  0  0  0 
  5  6  1  0  0  0  0 
  5  7  1  0  0  0  0 
  9 10  1  0  0  0  0 
  9 11  1  0  0  0  0 
  9 13  1  0  0  0  0 
 11 12  1  0  0  0  0 
 13 17  1  0  0  0  0 
 13 14  1  0  0  0  0 
 13 15  1  0  0  0  0 
 15 16  1  0  0  0  0 
 17 18  1  0  0  0  0 
 17 19  1  0  0  0  0 
 19 20  1  0  0  0  0 
M  END
