
  CDK     1209201322

 35 37  0  0  0  0  0  0  0  0999 V2000
    2.0081    5.0152    0.0000 C   0  0  0  0  0  0  0  0  0  0  0  0
    3.2529    5.8522    0.0000 H   0  0  0  0  0  0  0  0  0  0  0  0
    2.9707    3.8648    0.0000 O   0  0  0  0  0  0  0  0  0  0  0  0
    2.1740    2.5938    0.0000 C   0  0  0  0  0  0  0  0  0  0  0  0
    3.5213    1.9344    0.0000 H   0  0  0  0  0  0  0  0  0  0  0  0
    0.1800   -0.7410    0.0000 C   0  0  0  0  0  0  0  0  0  0  0  0
    1.6030   -1.2150    0.0000 N   0  0  0  0  0  0  0  0  0  0  0  0
    2.5100   -0.0290    0.0000 C   0  0  0  0  0  0  0  0  0  0  0  0
    4.0097   -0.0601    0.0000 H   0  0  0  0  0  0  0  0  0  0  0  0
    1.6590    1.1850    0.0000 N   0  0  0  0  0  0  0  0  0  0  0  0
   -2.4010   -0.6710    0.0000 N   0  0  0  0  0  0  0  0  0  0  0  0
   -2.3590    0.8500    0.0000 C   0  0  0  0  0  0  0  0  0  0  0  0
   -3.6411    1.6286    0.0000 H   0  0  0  0  0  0  0  0  0  0  0  0
   -1.1040    1.5470    0.0000 N   0  0  0  0  0  0  0  0  0  0  0  0
    0.1800    0.7940    0.0000 C   0  0  0  0  0  0  0  0  0  0  0  0
   -1.1590   -1.4100    0.0000 C   0  0  0  0  0  0  0  0  0  0  0  0
   -1.2140   -2.9090    0.0000 N   0  0  0  0  0  0  0  0  0  0  0  0
   -2.5397   -3.6108    0.0000 H   0  0  0  0  0  0  0  0  0  0  0  0
    0.0566   -3.7061    0.0000 H   0  0  0  0  0  0  0  0  0  0  0  0
    0.7191    2.9587    0.0000 C   0  0  0  0  0  0  0  0  0  0  0  0
   -0.7799    3.0132    0.0000 H   0  0  0  0  0  0  0  0  0  0  0  0
    0.5082    1.4736    0.0000 O   0  0  0  0  0  0  0  0  0  0  0  0
    1.6889    0.5485    0.0000 H   0  0  0  0  0  0  0  0  0  0  0  0
    0.6166    4.4552    0.0000 C   0  0  0  0  0  0  0  0  0  0  0  0
   -0.8610    4.1969    0.0000 H   0  0  0  0  0  0  0  0  0  0  0  0
    0.2051    5.8977    0.0000 O   0  0  0  0  0  0  0  0  0  0  0  0
    1.2486    6.9753    0.0000 H   0  0  0  0  0  0  0  0  0  0  0  0
    1.3058    6.3406    0.0000 C   0  0  0  0  0  0  0  0  0  0  0  0
    0.1925    7.3459    0.0000 H   0  0  0  0  0  0  0  0  0  0  0  0
    0.1225    5.4188    0.0000 H   0  0  0  0  0  0  0  0  0  0  0  0
    2.1025    7.6116    0.0000 O   0  0  0  0  0  0  0  0  0  0  0  0
    1.4001    8.9370    0.0000 P   0  0  0  0  0  4  0  0  0  0  0  0
    2.1968   10.2079    0.0000 O   0  0  0  0  0  1  0  0  0  0  0  0
    0.2868    9.9422    0.0000 O   0  0  0  0  0  1  0  0  0  0  0  0
    0.2168    8.0151    0.0000 O   0  0  0  0  0  0  0  0  0  0  0  0
  1 24  1  0  0  0  0 
  1  2  1  0  0  0  0 
  1  3  1  0  0  0  0 
  1 28  1  0  0  0  0 
  3  4  1  0  0  0  0 
  4 10  1  0  0  0  0 
  4 20  1  0  0  0  0 
  4  5  1  0  0  0  0 
  6 16  1  0  0  0  0 
  6 15  1  0  0  0  0 
  6  7  1  0  0  0  0 
  7  8  1  0  0  0  0 
  8  9  1  0  0  0  0 
  8 10  1  0  0  0  0 
 10 15  1  0  0  0  0 
 11 16  1  0  0  0  0 
 11 12  1  0  0  0  0 
 12 13  1  0  0  0  0 
 12 14  1  0  0  0  0 
 14 15  1  0  0  0  0 
 16 17  1  0  0  0  0 
 17 18  1  0  0  0  0 
 17 19  1  0  0  0  0 
 20 24  1  0  0  0  0 
 20 21  1  0  0  0  0 
 20 22  1  0  0  0  0 
 22 23  1  0  0  0  0 
 24 26  1  0  0  0  0 
 24 25  1  0  0  0  0 
 26 27  1  0  0  0  0 
 28 29  1  0  0  0  0 
 28 30  1  0  0  0  0 
 28 31  1  0  0  0  0 
 31 32  1  0  0  0  0 
 32 33  1  0  0  0  0 
 32 34  1  0  0  0  0 
 32 35  1  0  0  0  0 
M  END
