
  CDK     1209201322

 28 28  0  0  0  0  0  0  0  0999 V2000
    1.3060    1.0240    0.0000 C   0  0  0  0  0  0  0  0  0  0  0  0
    2.7838    0.7666    0.0000 H   0  0  0  0  0  0  0  0  0  0  0  0
    1.8131    2.4357    0.0000 O   0  0  0  0  0  0  0  0  0  0  0  0
    3.2893    2.7023    0.0000 H   0  0  0  0  0  0  0  0  0  0  0  0
   -1.3100    1.0240    0.0000 C   0  0  0  0  0  0  0  0  0  0  0  0
   -2.7876    0.7656    0.0000 H   0  0  0  0  0  0  0  0  0  0  0  0
   -0.0050    1.7700    0.0000 O   0  0  0  0  0  0  0  0  0  0  0  0
    1.3060   -0.4740    0.0000 C   0  0  0  0  0  0  0  0  0  0  0  0
    2.7835   -0.2151    0.0000 H   0  0  0  0  0  0  0  0  0  0  0  0
    1.8161   -1.8846    0.0000 O   0  0  0  0  0  0  0  0  0  0  0  0
    3.2927   -2.1482    0.0000 C   0  0  0  0  0  3  0  0  0  0  0  0
    4.2593   -1.0011    0.0000 O   0  0  0  0  0  1  0  0  0  0  0  0
    3.8028   -3.5588    0.0000 C   0  0  0  0  0  0  0  0  0  0  0  0
    5.2795   -3.8223    0.0000 H   0  0  0  0  0  0  0  0  0  0  0  0
    3.7997   -5.0588    0.0000 H   0  0  0  0  0  0  0  0  0  0  0  0
    2.3251   -3.8162    0.0000 H   0  0  0  0  0  0  0  0  0  0  0  0
   -0.0060   -1.2260    0.0000 C   0  0  0  0  0  0  0  0  0  0  0  0
   -0.9710   -2.3744    0.0000 H   0  0  0  0  0  0  0  0  0  0  0  0
    0.9560   -2.3769    0.0000 O   0  0  0  0  0  0  0  0  0  0  0  0
    0.4402   -3.7855    0.0000 H   0  0  0  0  0  0  0  0  0  0  0  0
   -1.3100   -0.4740    0.0000 C   0  0  0  0  0  0  0  0  0  0  0  0
   -2.7873   -0.2138    0.0000 H   0  0  0  0  0  0  0  0  0  0  0  0
   -1.8226   -1.8837    0.0000 O   0  0  0  0  0  0  0  0  0  0  0  0
   -3.2997   -2.1447    0.0000 H   0  0  0  0  0  0  0  0  0  0  0  0
   -1.8190    2.4350    0.0000 C   0  0  0  0  0  0  0  0  0  0  0  0
   -3.2955    2.6997    0.0000 H   0  0  0  0  0  0  0  0  0  0  0  0
   -0.3410    2.6912    0.0000 H   0  0  0  0  0  0  0  0  0  0  0  0
   -1.8147    3.9350    0.0000 H   0  0  0  0  0  0  0  0  0  0  0  0
  1  8  1  0  0  0  0 
  1  2  1  0  0  0  0 
  1  3  1  0  0  0  0 
  1  7  1  0  0  0  0 
  3  4  1  0  0  0  0 
  5 25  1  0  0  0  0 
  5 21  1  0  0  0  0 
  5  6  1  0  0  0  0 
  5  7  1  0  0  0  0 
  8 10  1  0  0  0  0 
  8 17  1  0  0  0  0 
  8  9  1  0  0  0  0 
 10 11  1  0  0  0  0 
 11 12  1  0  0  0  0 
 11 13  1  0  0  0  0 
 13 16  1  0  0  0  0 
 13 14  1  0  0  0  0 
 13 15  1  0  0  0  0 
 17 18  1  0  0  0  0 
 17 19  1  0  0  0  0 
 17 21  1  0  0  0  0 
 19 20  1  0  0  0  0 
 21 22  1  0  0  0  0 
 21 23  1  0  0  0  0 
 23 24  1  0  0  0  0 
 25 26  1  0  0  0  0 
 25 27  1  0  0  0  0 
 25 28  1  0  0  0  0 
M  END
