
  CDK     1209201321

 21 22  0  0  0  0  0  0  0  0999 V2000
   -0.0000   -1.2760    0.0000 O   0  0  0  0  0  0  0  0  0  0  0  0
   -1.2130   -0.3940    0.0000 C   0  0  0  0  0  0  0  0  0  0  0  0
   -2.5833    0.2161    0.0000 H   0  0  0  0  0  0  0  0  0  0  0  0
    1.2140   -0.3940    0.0000 C   0  0  0  0  0  0  0  0  0  0  0  0
    1.9642   -1.6929    0.0000 H   0  0  0  0  0  0  0  0  0  0  0  0
    2.5841    0.2165    0.0000 H   0  0  0  0  0  0  0  0  0  0  0  0
    0.7500    1.0320    0.0000 C   0  0  0  0  0  0  0  0  0  0  0  0
    2.2171    1.3443    0.0000 H   0  0  0  0  0  0  0  0  0  0  0  0
    0.5930    2.5238    0.0000 H   0  0  0  0  0  0  0  0  0  0  0  0
   -0.7500    1.0320    0.0000 C   0  0  0  0  0  0  0  0  0  0  0  0
   -0.5933    2.5238    0.0000 H   0  0  0  0  0  0  0  0  0  0  0  0
   -2.2173    1.3437    0.0000 O   0  0  0  0  0  0  0  0  0  0  0  0
   -2.6810    2.7702    0.0000 H   0  0  0  0  0  0  0  0  0  0  0  0
   -3.4550   -1.8494    0.0000 C   0  0  0  0  0  0  0  0  0  0  0  0
   -4.4585   -0.7345    0.0000 H   0  0  0  0  0  0  0  0  0  0  0  0
   -3.7672   -3.3166    0.0000 C   0  0  0  0  0  0  0  0  0  0  0  0
   -5.1376   -3.9264    0.0000 H   0  0  0  0  0  0  0  0  0  0  0  0
   -1.9632   -1.6929    0.0000 N   0  0  0  0  0  0  0  0  0  0  0  0
   -1.3534   -3.0633    0.0000 C   0  0  0  0  0  0  0  0  0  0  0  0
    0.1138   -3.3755    0.0000 H   0  0  0  0  0  0  0  0  0  0  0  0
   -2.4683   -4.0668    0.0000 N   0  0  0  0  0  0  0  0  0  0  0  0
  1  2  1  0  0  0  0 
  1  4  1  0  0  0  0 
  2 10  1  0  0  0  0 
  2  3  1  0  0  0  0 
  2 18  1  0  0  0  0 
  4  5  1  0  0  0  0 
  4  6  1  0  0  0  0 
  4  7  1  0  0  0  0 
  7  8  1  0  0  0  0 
  7  9  1  0  0  0  0 
  7 10  1  0  0  0  0 
 10 11  1  0  0  0  0 
 10 12  1  0  0  0  0 
 12 13  1  0  0  0  0 
 14 16  1  0  0  0  0 
 14 18  1  0  0  0  0 
 14 15  1  0  0  0  0 
 16 17  1  0  0  0  0 
 16 21  1  0  0  0  0 
 18 19  1  0  0  0  0 
 19 20  1  0  0  0  0 
 19 21  1  0  0  0  0 
M  END
