
  CDK     1209201321

 18 18  0  0  0  0  0  0  0  0999 V2000
   -0.3300    1.7520    0.0000 O   0  0  0  0  0  0  0  0  0  0  0  0
   -1.5440    0.8700    0.0000 C   0  0  0  0  0  0  0  0  0  0  0  0
   -2.2941    2.1690    0.0000 H   0  0  0  0  0  0  0  0  0  0  0  0
   -2.9142    0.2597    0.0000 H   0  0  0  0  0  0  0  0  0  0  0  0
    0.8840    0.8700    0.0000 C   0  0  0  0  0  0  0  0  0  0  0  0
    2.2542    0.2597    0.0000 H   0  0  0  0  0  0  0  0  0  0  0  0
   -1.0800   -0.5570    0.0000 C   0  0  0  0  0  0  0  0  0  0  0  0
   -2.5472   -0.8691    0.0000 H   0  0  0  0  0  0  0  0  0  0  0  0
   -0.9231   -2.0488    0.0000 O   0  0  0  0  0  0  0  0  0  0  0  0
   -2.1366   -2.9305    0.0000 H   0  0  0  0  0  0  0  0  0  0  0  0
    0.4200   -0.5570    0.0000 C   0  0  0  0  0  0  0  0  0  0  0  0
    0.2631   -2.0488    0.0000 H   0  0  0  0  0  0  0  0  0  0  0  0
    1.8872   -0.8691    0.0000 O   0  0  0  0  0  0  0  0  0  0  0  0
    2.3505   -2.2957    0.0000 H   0  0  0  0  0  0  0  0  0  0  0  0
    1.6341    2.1690    0.0000 C   0  0  0  0  0  0  0  0  0  0  0  0
    3.1341    2.1689    0.0000 H   0  0  0  0  0  0  0  0  0  0  0  0
    1.8946    3.6462    0.0000 H   0  0  0  0  0  0  0  0  0  0  0  0
    0.2246    2.6821    0.0000 H   0  0  0  0  0  0  0  0  0  0  0  0
  1  2  1  0  0  0  0 
  1  5  1  0  0  0  0 
  2  3  1  0  0  0  0 
  2  4  1  0  0  0  0 
  2  7  1  0  0  0  0 
  5 11  1  0  0  0  0 
  5  6  1  0  0  0  0 
  5 15  1  0  0  0  0 
  7  8  1  0  0  0  0 
  7  9  1  0  0  0  0 
  7 11  1  0  0  0  0 
  9 10  1  0  0  0  0 
 11 12  1  0  0  0  0 
 11 13  1  0  0  0  0 
 13 14  1  0  0  0  0 
 15 16  1  0  0  0  0 
 15 17  1  0  0  0  0 
 15 18  1  0  0  0  0 
M  END
