
  CDK     1209201322

 37 38  0  0  0  0  0  0  0  0999 V2000
   -1.0070    1.5000    0.0000 C   0  0  0  0  0  0  0  0  0  0  0  0
   -0.0431    2.6493    0.0000 H   0  0  0  0  0  0  0  0  0  0  0  0
   -1.9713    2.6490    0.0000 H   0  0  0  0  0  0  0  0  0  0  0  0
   -2.3060    0.7500    0.0000 C   0  0  0  0  0  0  0  0  0  0  0  0
   -2.8190    2.1595    0.0000 H   0  0  0  0  0  0  0  0  0  0  0  0
   -3.7832    0.4895    0.0000 H   0  0  0  0  0  0  0  0  0  0  0  0
   -2.3060   -0.7500    0.0000 C   0  0  0  0  0  0  0  0  0  0  0  0
   -3.7832   -0.4895    0.0000 H   0  0  0  0  0  0  0  0  0  0  0  0
   -2.8190   -2.1595    0.0000 H   0  0  0  0  0  0  0  0  0  0  0  0
   -1.0070   -1.5000    0.0000 C   0  0  0  0  0  0  0  0  0  0  0  0
   -1.9713   -2.6490    0.0000 H   0  0  0  0  0  0  0  0  0  0  0  0
   -0.0431   -2.6493    0.0000 H   0  0  0  0  0  0  0  0  0  0  0  0
    0.2930   -0.7500    0.0000 C   0  0  0  0  0  0  0  0  0  0  0  0
    0.4492   -2.2418    0.0000 H   0  0  0  0  0  0  0  0  0  0  0  0
    0.2930    0.7500    0.0000 C   0  0  0  0  0  0  0  0  0  0  0  0
    1.7190   -1.2140    0.0000 C   0  0  0  0  0  0  0  0  0  0  0  0
    1.1085   -2.5841    0.0000 H   0  0  0  0  0  0  0  0  0  0  0  0
    3.0179   -1.9642    0.0000 H   0  0  0  0  0  0  0  0  0  0  0  0
    2.6010    0.0000    0.0000 C   0  0  0  0  0  0  0  0  0  0  0  0
    3.7157   -1.0037    0.0000 H   0  0  0  0  0  0  0  0  0  0  0  0
    3.7157    1.0037    0.0000 H   0  0  0  0  0  0  0  0  0  0  0  0
    1.7190    1.2140    0.0000 C   0  0  0  0  0  0  0  0  0  0  0  0
    1.1085    2.5841    0.0000 H   0  0  0  0  0  0  0  0  0  0  0  0
    0.4492    2.2418    0.0000 C   0  0  0  0  0  0  0  0  0  0  0  0
    1.8193    2.8525    0.0000 H   0  0  0  0  0  0  0  0  0  0  0  0
    0.0858    3.6971    0.0000 H   0  0  0  0  0  0  0  0  0  0  0  0
   -1.0471    2.1367    0.0000 H   0  0  0  0  0  0  0  0  0  0  0  0
    3.0179    1.9642    0.0000 C   0  0  0  0  0  0  0  0  0  0  0  0
    2.0536    3.1131    0.0000 H   0  0  0  0  0  0  0  0  0  0  0  0
    4.3171    1.2143    0.0000 C   0  0  0  0  0  0  0  0  0  0  0  0
    5.6160    1.9645    0.0000 H   0  0  0  0  0  0  0  0  0  0  0  0
    3.3530    0.0651    0.0000 H   0  0  0  0  0  0  0  0  0  0  0  0
    5.2814    0.0654    0.0000 H   0  0  0  0  0  0  0  0  0  0  0  0
    3.9820    3.1134    0.0000 C   0  0  0  0  0  0  0  0  0  0  0  0
    5.4592    2.8531    0.0000 H   0  0  0  0  0  0  0  0  0  0  0  0
    4.4948    4.5230    0.0000 H   0  0  0  0  0  0  0  0  0  0  0  0
    2.6828    3.8632    0.0000 H   0  0  0  0  0  0  0  0  0  0  0  0
  1  2  1  0  0  0  0 
  1  3  1  0  0  0  0 
  1  4  1  0  0  0  0 
  1 15  1  0  0  0  0 
  4  5  1  0  0  0  0 
  4  6  1  0  0  0  0 
  4  7  1  0  0  0  0 
  7  8  1  0  0  0  0 
  7  9  1  0  0  0  0 
  7 10  1  0  0  0  0 
 10 11  1  0  0  0  0 
 10 12  1  0  0  0  0 
 10 13  1  0  0  0  0 
 13 16  1  0  0  0  0 
 13 14  1  0  0  0  0 
 13 15  1  0  0  0  0 
 15 24  1  0  0  0  0 
 15 22  1  0  0  0  0 
 16 17  1  0  0  0  0 
 16 18  1  0  0  0  0 
 16 19  1  0  0  0  0 
 19 20  1  0  0  0  0 
 19 21  1  0  0  0  0 
 19 22  1  0  0  0  0 
 22 28  1  0  0  0  0 
 22 23  1  0  0  0  0 
 24 25  1  0  0  0  0 
 24 26  1  0  0  0  0 
 24 27  1  0  0  0  0 
 28 30  1  0  0  0  0 
 28 34  1  0  0  0  0 
 28 29  1  0  0  0  0 
 30 32  1  0  0  0  0 
 30 33  1  0  0  0  0 
 30 31  1  0  0  0  0 
 34 36  1  0  0  0  0 
 34 35  1  0  0  0  0 
 34 37  1  0  0  0  0 
M  END
