
  CDK     1209201322

 24 24  0  0  0  0  0  0  0  0999 V2000
    0.0000    1.0710    0.0000 C   0  0  0  0  0  0  0  0  0  0  0  0
    1.2990    0.3210    0.0000 C   0  0  0  0  0  0  0  0  0  0  0  0
    2.5980    1.0710    0.0000 H   0  0  0  0  0  0  0  0  0  0  0  0
   -1.2990    0.3210    0.0000 C   0  0  0  0  0  0  0  0  0  0  0  0
   -2.5980    1.0710    0.0000 H   0  0  0  0  0  0  0  0  0  0  0  0
    1.2990   -1.1790    0.0000 C   0  0  0  0  0  0  0  0  0  0  0  0
    2.5980   -1.9290    0.0000 H   0  0  0  0  0  0  0  0  0  0  0  0
   -1.2990   -1.1790    0.0000 C   0  0  0  0  0  0  0  0  0  0  0  0
   -2.5980   -1.9290    0.0000 H   0  0  0  0  0  0  0  0  0  0  0  0
    0.0000   -1.9290    0.0000 C   0  0  0  0  0  0  0  0  0  0  0  0
   -0.0000   -3.4290    0.0000 H   0  0  0  0  0  0  0  0  0  0  0  0
    0.0000    2.5710    0.0000 C   0  0  0  0  0  0  0  0  0  0  0  0
    1.4772    2.3105    0.0000 H   0  0  0  0  0  0  0  0  0  0  0  0
    0.5130    3.9805    0.0000 H   0  0  0  0  0  0  0  0  0  0  0  0
   -1.2990    3.3210    0.0000 C   0  0  0  0  0  0  0  0  0  0  0  0
   -2.7762    3.5815    0.0000 H   0  0  0  0  0  0  0  0  0  0  0  0
   -1.8121    1.9115    0.0000 H   0  0  0  0  0  0  0  0  0  0  0  0
   -1.2990    4.8210    0.0000 C   0  0  0  0  0  0  0  0  0  0  0  0
    0.1782    4.5605    0.0000 H   0  0  0  0  0  0  0  0  0  0  0  0
   -0.7860    6.2305    0.0000 H   0  0  0  0  0  0  0  0  0  0  0  0
   -2.5981    5.5710    0.0000 C   0  0  0  0  0  0  0  0  0  0  0  0
   -2.5981    7.0710    0.0000 H   0  0  0  0  0  0  0  0  0  0  0  0
   -3.1111    4.1615    0.0000 H   0  0  0  0  0  0  0  0  0  0  0  0
   -4.0753    5.8315    0.0000 H   0  0  0  0  0  0  0  0  0  0  0  0
  1 12  1  0  0  0  0 
  1  2  1  0  0  0  0 
  1  4  1  0  0  0  0 
  2  3  1  0  0  0  0 
  2  6  1  0  0  0  0 
  4  8  1  0  0  0  0 
  4  5  1  0  0  0  0 
  6 10  1  0  0  0  0 
  6  7  1  0  0  0  0 
  8  9  1  0  0  0  0 
  8 10  1  0  0  0  0 
 10 11  1  0  0  0  0 
 12 13  1  0  0  0  0 
 12 14  1  0  0  0  0 
 12 15  1  0  0  0  0 
 15 16  1  0  0  0  0 
 15 17  1  0  0  0  0 
 15 18  1  0  0  0  0 
 18 19  1  0  0  0  0 
 18 20  1  0  0  0  0 
 18 21  1  0  0  0  0 
 21 24  1  0  0  0  0 
 21 22  1  0  0  0  0 
 21 23  1  0  0  0  0 
M  END
