
  CDK     1209201322

 19 19  0  0  0  0  0  0  0  0999 V2000
    0.1880    1.2810    0.0000 O   0  0  0  0  0  0  0  0  0  0  0  0
    1.4010    0.4000    0.0000 C   0  0  0  0  0  0  0  0  0  0  0  0
    2.7715   -0.2096    0.0000 H   0  0  0  0  0  0  0  0  0  0  0  0
    2.1507    1.6992    0.0000 O   0  0  0  0  0  0  0  0  0  0  0  0
    3.6507    1.6996    0.0000 H   0  0  0  0  0  0  0  0  0  0  0  0
   -1.0260    0.4000    0.0000 C   0  0  0  0  0  0  0  0  0  0  0  0
   -2.3966   -0.2095    0.0000 H   0  0  0  0  0  0  0  0  0  0  0  0
   -1.7753    1.6994    0.0000 C   0  0  0  0  0  0  0  0  0  0  0  0
   -0.3655    2.2117    0.0000 H   0  0  0  0  0  0  0  0  0  0  0  0
   -2.0351    3.1768    0.0000 H   0  0  0  0  0  0  0  0  0  0  0  0
   -3.2753    1.7002    0.0000 O   0  0  0  0  0  0  0  0  0  0  0  0
   -4.0247    2.9996    0.0000 H   0  0  0  0  0  0  0  0  0  0  0  0
    0.9380   -1.0270    0.0000 C   0  0  0  0  0  0  0  0  0  0  0  0
    0.7814   -2.5188    0.0000 H   0  0  0  0  0  0  0  0  0  0  0  0
    2.4053   -1.3385    0.0000 H   0  0  0  0  0  0  0  0  0  0  0  0
   -0.5630   -1.0270    0.0000 C   0  0  0  0  0  0  0  0  0  0  0  0
   -2.0303   -1.3385    0.0000 H   0  0  0  0  0  0  0  0  0  0  0  0
   -0.4064   -2.5188    0.0000 O   0  0  0  0  0  0  0  0  0  0  0  0
   -1.6201   -3.4003    0.0000 H   0  0  0  0  0  0  0  0  0  0  0  0
  1  2  1  0  0  0  0 
  1  6  1  0  0  0  0 
  2  3  1  0  0  0  0 
  2  4  1  0  0  0  0 
  2 13  1  0  0  0  0 
  4  5  1  0  0  0  0 
  6 16  1  0  0  0  0 
  6  8  1  0  0  0  0 
  6  7  1  0  0  0  0 
  8  9  1  0  0  0  0 
  8 10  1  0  0  0  0 
  8 11  1  0  0  0  0 
 11 12  1  0  0  0  0 
 13 16  1  0  0  0  0 
 13 14  1  0  0  0  0 
 13 15  1  0  0  0  0 
 16 17  1  0  0  0  0 
 16 18  1  0  0  0  0 
 18 19  1  0  0  0  0 
M  END
