
  CDK     1209201322

 40 43  0  0  0  0  0  0  0  0999 V2000
    7.6063    1.7667    0.0000 N   0  0  0  0  0  0  0  0  0  0  0  0
    6.2772    2.4620    0.0000 C   0  0  0  0  0  0  0  0  0  0  0  0
    6.0584    3.9459    0.0000 H   0  0  0  0  0  0  0  0  0  0  0  0
    5.2053    1.4127    0.0000 C   0  0  0  0  0  3  0  0  0  0  0  0
    5.8719    0.0690    0.0000 C   0  0  0  0  0  0  0  0  0  0  0  0
    5.3195   -1.3256    0.0000 C   0  0  0  0  0  0  0  0  0  0  0  0
    3.8355   -1.5444    0.0000 O   0  0  0  0  0  0  0  0  0  0  0  0
    6.2510   -2.5013    0.0000 N   0  0  0  0  0  0  0  0  0  0  0  0
    5.6985   -3.8959    0.0000 H   0  0  0  0  0  0  0  0  0  0  0  0
    7.7349   -2.2825    0.0000 C   0  0  0  0  0  0  0  0  0  0  0  0
    8.6664   -3.4582    0.0000 N   0  0  0  0  0  0  0  0  0  0  0  0
   10.1503   -3.2394    0.0000 H   0  0  0  0  0  0  0  0  0  0  0  0
    8.1139   -4.8528    0.0000 H   0  0  0  0  0  0  0  0  0  0  0  0
    8.2874   -0.8879    0.0000 N   0  0  0  0  0  0  0  0  0  0  0  0
    7.3559    0.2878    0.0000 C   0  0  0  0  0  0  0  0  0  0  0  0
    3.7263    1.6631    0.0000 C   0  0  0  0  0  0  0  0  0  0  0  0
    4.2298    3.0761    0.0000 H   0  0  0  0  0  0  0  0  0  0  0  0
    2.4222    2.4043    0.0000 H   0  0  0  0  0  0  0  0  0  0  0  0
    2.7699    0.5075    0.0000 N   0  0  0  0  0  4  0  0  0  0  0  0
    2.2665   -0.9054    0.0000 H   0  0  0  0  0  0  0  0  0  0  0  0
    4.0740   -0.2336    0.0000 H   0  0  0  0  0  0  0  0  0  0  0  0
    1.2910    0.7580    0.0000 C   0  0  0  0  0  0  0  0  0  0  0  0
    1.7934    2.1714    0.0000 H   0  0  0  0  0  0  0  0  0  0  0  0
   -1.2720   -0.7470    0.0000 C   0  0  0  0  0  0  0  0  0  0  0  0
   -2.5656   -1.5063    0.0000 H   0  0  0  0  0  0  0  0  0  0  0  0
   -1.3100    0.7360    0.0000 O   0  0  0  0  0  0  0  0  0  0  0  0
   -0.0140    1.4970    0.0000 C   0  0  0  0  0  0  0  0  0  0  0  0
   -0.0258    2.9970    0.0000 H   0  0  0  0  0  0  0  0  0  0  0  0
    1.3000   -0.7420    0.0000 C   0  0  0  0  0  0  0  0  0  0  0  0
    1.8227   -2.1480    0.0000 H   0  0  0  0  0  0  0  0  0  0  0  0
    2.7755   -0.4720    0.0000 O   0  0  0  0  0  0  0  0  0  0  0  0
    3.7471   -1.6148    0.0000 H   0  0  0  0  0  0  0  0  0  0  0  0
    0.0040   -1.5030    0.0000 C   0  0  0  0  0  0  0  0  0  0  0  0
   -0.9660   -2.6472    0.0000 H   0  0  0  0  0  0  0  0  0  0  0  0
    0.9695   -2.6510    0.0000 O   0  0  0  0  0  0  0  0  0  0  0  0
    0.4581   -4.0611    0.0000 H   0  0  0  0  0  0  0  0  0  0  0  0
    8.9500    2.4334    0.0000 C   0  0  0  0  0  0  0  0  0  0  0  0
    9.0445    3.9304    0.0000 H   0  0  0  0  0  0  0  0  0  0  0  0
   10.4407    2.6003    0.0000 H   0  0  0  0  0  0  0  0  0  0  0  0
    9.3733    0.9944    0.0000 H   0  0  0  0  0  0  0  0  0  0  0  0
  1  2  1  0  0  0  0 
  1 37  1  0  0  0  0 
  1 15  1  0  0  0  0 
  2  3  1  0  0  0  0 
  2  4  1  0  0  0  0 
  4 16  1  0  0  0  0 
  4  5  1  0  0  0  0 
  5  6  1  0  0  0  0 
  5 15  1  0  0  0  0 
  6  8  1  0  0  0  0 
  6  7  1  0  0  0  0 
  8  9  1  0  0  0  0 
  8 10  1  0  0  0  0 
 10 11  1  0  0  0  0 
 10 14  1  0  0  0  0 
 11 12  1  0  0  0  0 
 11 13  1  0  0  0  0 
 14 15  1  0  0  0  0 
 16 17  1  0  0  0  0 
 16 18  1  0  0  0  0 
 16 19  1  0  0  0  0 
 19 20  1  0  0  0  0 
 19 21  1  0  0  0  0 
 19 22  1  0  0  0  0 
 22 27  1  0  0  0  0 
 22 29  1  0  0  0  0 
 22 23  1  0  0  0  0 
 24 33  1  0  0  0  0 
 24 26  1  0  0  0  0 
 24 27  1  0  0  0  0 
 24 25  1  0  0  0  0 
 26 27  1  0  0  0  0 
 27 28  1  0  0  0  0 
 29 33  1  0  0  0  0 
 29 30  1  0  0  0  0 
 29 31  1  0  0  0  0 
 31 32  1  0  0  0  0 
 33 34  1  0  0  0  0 
 33 35  1  0  0  0  0 
 35 36  1  0  0  0  0 
 37 40  1  0  0  0  0 
 37 38  1  0  0  0  0 
 37 39  1  0  0  0  0 
M  END
