
  CDK     1209201322

 39 39  0  0  0  0  0  0  0  0999 V2000
    1.2990    1.0230    0.0000 C   0  0  0  0  0  0  0  0  0  0  0  0
    2.7762    0.7625    0.0000 H   0  0  0  0  0  0  0  0  0  0  0  0
    1.8120    2.4325    0.0000 O   0  0  0  0  0  0  0  0  0  0  0  0
    3.2893    2.6930    0.0000 H   0  0  0  0  0  0  0  0  0  0  0  0
   -1.2990    1.0230    0.0000 C   0  0  0  0  0  0  0  0  0  0  0  0
   -2.7762    0.7625    0.0000 H   0  0  0  0  0  0  0  0  0  0  0  0
   -0.0000    1.7730    0.0000 O   0  0  0  0  0  0  0  0  0  0  0  0
    1.2990   -0.4770    0.0000 C   0  0  0  0  0  0  0  0  0  0  0  0
    2.7762   -0.2165    0.0000 H   0  0  0  0  0  0  0  0  0  0  0  0
    1.8120   -1.8865    0.0000 N   0  0  0  0  0  0  0  0  0  0  0  0
    0.8479   -3.0356    0.0000 H   0  0  0  0  0  0  0  0  0  0  0  0
    3.2893   -2.1470    0.0000 C   0  0  0  0  0  3  0  0  0  0  0  0
    4.2534   -0.9979    0.0000 O   0  0  0  0  0  1  0  0  0  0  0  0
    3.8023   -3.5565    0.0000 C   0  0  0  0  0  0  0  0  0  0  0  0
    3.8023   -5.0565    0.0000 H   0  0  0  0  0  0  0  0  0  0  0  0
    2.3251   -3.8170    0.0000 H   0  0  0  0  0  0  0  0  0  0  0  0
    5.2795   -3.8170    0.0000 O   0  0  0  0  0  0  0  0  0  0  0  0
    5.7926   -5.2265    0.0000 H   0  0  0  0  0  0  0  0  0  0  0  0
   -0.0000   -1.2270    0.0000 C   0  0  0  0  0  0  0  0  0  0  0  0
   -0.9642   -2.3761    0.0000 H   0  0  0  0  0  0  0  0  0  0  0  0
    0.9642   -2.3761    0.0000 O   0  0  0  0  0  0  0  0  0  0  0  0
    0.4512   -3.7856    0.0000 C   0  0  0  0  0  0  0  0  0  0  0  0
   -0.5130   -4.9347    0.0000 H   0  0  0  0  0  0  0  0  0  0  0  0
   -0.8479   -3.0356    0.0000 C   0  0  0  0  0  3  0  0  0  0  0  0
   -2.1469   -3.7856    0.0000 O   0  0  0  0  0  1  0  0  0  0  0  0
   -0.8479   -1.5356    0.0000 O   0  0  0  0  0  1  0  0  0  0  0  0
    1.4153   -4.9347    0.0000 C   0  0  0  0  0  0  0  0  0  0  0  0
    0.9023   -6.3442    0.0000 H   0  0  0  0  0  0  0  0  0  0  0  0
    2.3795   -3.7856    0.0000 H   0  0  0  0  0  0  0  0  0  0  0  0
    2.7144   -5.6847    0.0000 H   0  0  0  0  0  0  0  0  0  0  0  0
   -1.2990   -0.4770    0.0000 C   0  0  0  0  0  0  0  0  0  0  0  0
   -2.7762   -0.2165    0.0000 H   0  0  0  0  0  0  0  0  0  0  0  0
   -1.8120   -1.8865    0.0000 O   0  0  0  0  0  0  0  0  0  0  0  0
   -3.2893   -2.1470    0.0000 H   0  0  0  0  0  0  0  0  0  0  0  0
   -1.8120    2.4325    0.0000 C   0  0  0  0  0  0  0  0  0  0  0  0
   -0.3348    2.6930    0.0000 H   0  0  0  0  0  0  0  0  0  0  0  0
   -1.8121    3.9325    0.0000 H   0  0  0  0  0  0  0  0  0  0  0  0
   -3.2893    2.6930    0.0000 O   0  0  0  0  0  0  0  0  0  0  0  0
   -3.8023    4.1025    0.0000 H   0  0  0  0  0  0  0  0  0  0  0  0
  1  8  1  0  0  0  0 
  1  2  1  0  0  0  0 
  1  3  1  0  0  0  0 
  1  7  1  0  0  0  0 
  3  4  1  0  0  0  0 
  5  7  1  0  0  0  0 
  5 35  1  0  0  0  0 
  5  6  1  0  0  0  0 
  5 31  1  0  0  0  0 
  8 10  1  0  0  0  0 
  8 19  1  0  0  0  0 
  8  9  1  0  0  0  0 
 10 11  1  0  0  0  0 
 10 12  1  0  0  0  0 
 12 13  1  0  0  0  0 
 12 14  1  0  0  0  0 
 14 16  1  0  0  0  0 
 14 17  1  0  0  0  0 
 14 15  1  0  0  0  0 
 17 18  1  0  0  0  0 
 19 20  1  0  0  0  0 
 19 21  1  0  0  0  0 
 19 31  1  0  0  0  0 
 21 22  1  0  0  0  0 
 22 24  1  0  0  0  0 
 22 27  1  0  0  0  0 
 22 23  1  0  0  0  0 
 24 25  1  0  0  0  0 
 24 26  1  0  0  0  0 
 27 30  1  0  0  0  0 
 27 28  1  0  0  0  0 
 27 29  1  0  0  0  0 
 31 32  1  0  0  0  0 
 31 33  1  0  0  0  0 
 33 34  1  0  0  0  0 
 35 36  1  0  0  0  0 
 35 38  1  0  0  0  0 
 35 37  1  0  0  0  0 
 38 39  1  0  0  0  0 
M  END
