
  CDK     1209201322

 39 39  0  0  0  0  0  0  0  0999 V2000
    2.7824    0.5685    0.0000 C   0  0  0  0  0  3  0  0  0  0  0  0
    3.7458    1.7182    0.0000 O   0  0  0  0  0  1  0  0  0  0  0  0
    3.2963   -0.8407    0.0000 O   0  0  0  0  0  1  0  0  0  0  0  0
    1.3050    0.8280    0.0000 C   0  0  0  0  0  0  0  0  0  0  0  0
    1.8162    2.2382    0.0000 O   0  0  0  0  0  0  0  0  0  0  0  0
    3.2931    2.5006    0.0000 H   0  0  0  0  0  0  0  0  0  0  0  0
   -1.2890    0.8280    0.0000 C   0  0  0  0  0  0  0  0  0  0  0  0
   -1.7964    2.2396    0.0000 H   0  0  0  0  0  0  0  0  0  0  0  0
    0.0140    1.5700    0.0000 O   0  0  0  0  0  0  0  0  0  0  0  0
    1.3050   -0.6750    0.0000 C   0  0  0  0  0  0  0  0  0  0  0  0
    2.7818   -0.4121    0.0000 H   0  0  0  0  0  0  0  0  0  0  0  0
    1.8227   -2.0828    0.0000 H   0  0  0  0  0  0  0  0  0  0  0  0
    0.0140   -1.4290    0.0000 C   0  0  0  0  0  0  0  0  0  0  0  0
   -0.9490   -2.5790    0.0000 H   0  0  0  0  0  0  0  0  0  0  0  0
    0.9816   -2.5752    0.0000 O   0  0  0  0  0  0  0  0  0  0  0  0
    0.4728   -3.9862    0.0000 H   0  0  0  0  0  0  0  0  0  0  0  0
   -1.2890   -0.6750    0.0000 C   0  0  0  0  0  0  0  0  0  0  0  0
   -2.7661   -0.4140    0.0000 H   0  0  0  0  0  0  0  0  0  0  0  0
   -1.8030   -2.0842    0.0000 N   0  0  0  0  0  0  0  0  0  0  0  0
   -0.8395   -3.2339    0.0000 H   0  0  0  0  0  0  0  0  0  0  0  0
   -3.2803   -2.3437    0.0000 C   0  0  0  0  0  3  0  0  0  0  0  0
   -4.2438   -1.1940    0.0000 O   0  0  0  0  0  1  0  0  0  0  0  0
   -3.7943   -3.7529    0.0000 C   0  0  0  0  0  0  0  0  0  0  0  0
   -5.2717   -4.0124    0.0000 H   0  0  0  0  0  0  0  0  0  0  0  0
   -3.7953   -5.2529    0.0000 H   0  0  0  0  0  0  0  0  0  0  0  0
   -2.3173   -4.0143    0.0000 H   0  0  0  0  0  0  0  0  0  0  0  0
   -2.7667    0.5705    0.0000 C   0  0  0  0  0  0  0  0  0  0  0  0
   -4.0672   -0.1770    0.0000 H   0  0  0  0  0  0  0  0  0  0  0  0
   -2.2565   -0.8401    0.0000 O   0  0  0  0  0  0  0  0  0  0  0  0
   -3.2229   -1.9873    0.0000 H   0  0  0  0  0  0  0  0  0  0  0  0
   -3.7286    1.7214    0.0000 C   0  0  0  0  0  0  0  0  0  0  0  0
   -2.4281    2.4689    0.0000 H   0  0  0  0  0  0  0  0  0  0  0  0
   -4.2389    3.1320    0.0000 O   0  0  0  0  0  0  0  0  0  0  0  0
   -5.7156    3.3954    0.0000 H   0  0  0  0  0  0  0  0  0  0  0  0
   -5.2064    1.4639    0.0000 C   0  0  0  0  0  0  0  0  0  0  0  0
   -6.5069    0.7165    0.0000 H   0  0  0  0  0  0  0  0  0  0  0  0
   -4.6961    0.0533    0.0000 H   0  0  0  0  0  0  0  0  0  0  0  0
   -6.1683    2.6149    0.0000 O   0  0  0  0  0  0  0  0  0  0  0  0
   -7.6460    2.3573    0.0000 H   0  0  0  0  0  0  0  0  0  0  0  0
  1  2  1  0  0  0  0 
  1  3  1  0  0  0  0 
  1  4  1  0  0  0  0 
  4 10  1  0  0  0  0 
  4  5  1  0  0  0  0 
  4  9  1  0  0  0  0 
  5  6  1  0  0  0  0 
  7  8  1  0  0  0  0 
  7 17  1  0  0  0  0 
  7 27  1  0  0  0  0 
  7  9  1  0  0  0  0 
 10 12  1  0  0  0  0 
 10 11  1  0  0  0  0 
 10 13  1  0  0  0  0 
 13 17  1  0  0  0  0 
 13 14  1  0  0  0  0 
 13 15  1  0  0  0  0 
 15 16  1  0  0  0  0 
 17 18  1  0  0  0  0 
 17 19  1  0  0  0  0 
 19 20  1  0  0  0  0 
 19 21  1  0  0  0  0 
 21 22  1  0  0  0  0 
 21 23  1  0  0  0  0 
 23 24  1  0  0  0  0 
 23 25  1  0  0  0  0 
 23 26  1  0  0  0  0 
 27 31  1  0  0  0  0 
 27 28  1  0  0  0  0 
 27 29  1  0  0  0  0 
 29 30  1  0  0  0  0 
 31 32  1  0  0  0  0 
 31 33  1  0  0  0  0 
 31 35  1  0  0  0  0 
 33 34  1  0  0  0  0 
 35 36  1  0  0  0  0 
 35 37  1  0  0  0  0 
 35 38  1  0  0  0  0 
 38 39  1  0  0  0  0 
M  END
