
  CDK     1209201322

 24 23  0  0  0  0  0  0  0  0999 V2000
    1.2990   -0.7500    0.0000 C   0  0  0  0  0  0  0  0  0  0  0  0
    0.0000    0.0000    0.0000 H   0  0  0  0  0  0  0  0  0  0  0  0
    0.3349   -1.8991    0.0000 H   0  0  0  0  0  0  0  0  0  0  0  0
    2.2632   -1.8991    0.0000 H   0  0  0  0  0  0  0  0  0  0  0  0
    2.5981   -0.0000    0.0000 O   0  0  0  0  0  0  0  0  0  0  0  0
    3.8971   -0.7500    0.0000 P   0  0  0  0  0  4  0  0  0  0  0  0
    4.8613   -1.8991    0.0000 O   0  0  0  0  0  1  0  0  0  0  0  0
    2.9329   -1.8991    0.0000 O   0  0  0  0  0  0  0  0  0  0  0  0
    5.1962   -0.0000    0.0000 O   0  0  0  0  0  0  0  0  0  0  0  0
    6.4952   -0.7500    0.0000 C   0  0  0  0  0  0  0  0  0  0  0  0
    5.5310   -1.8991    0.0000 H   0  0  0  0  0  0  0  0  0  0  0  0
    7.4594   -1.8991    0.0000 H   0  0  0  0  0  0  0  0  0  0  0  0
    7.7942   -0.0000    0.0000 C   0  0  0  0  0  0  0  0  0  0  0  0
    8.7584    1.1491    0.0000 H   0  0  0  0  0  0  0  0  0  0  0  0
    6.8300    1.1491    0.0000 H   0  0  0  0  0  0  0  0  0  0  0  0
    9.0933   -0.7500    0.0000 O   0  0  0  0  0  0  0  0  0  0  0  0
   10.3923   -0.0000    0.0000 P   0  0  0  0  0  4  0  0  0  0  0  0
   11.3565    1.1491    0.0000 O   0  0  0  0  0  1  0  0  0  0  0  0
    9.4281    1.1491    0.0000 O   0  0  0  0  0  0  0  0  0  0  0  0
   11.6913   -0.7500    0.0000 O   0  0  0  0  0  0  0  0  0  0  0  0
   12.9904   -0.0000    0.0000 C   0  0  0  0  0  0  0  0  0  0  0  0
   14.2894   -0.7500    0.0000 H   0  0  0  0  0  0  0  0  0  0  0  0
   12.0262    1.1491    0.0000 H   0  0  0  0  0  0  0  0  0  0  0  0
   13.9546    1.1491    0.0000 H   0  0  0  0  0  0  0  0  0  0  0  0
  1  2  1  0  0  0  0 
  1  3  1  0  0  0  0 
  1  4  1  0  0  0  0 
  1  5  1  0  0  0  0 
  5  6  1  0  0  0  0 
  6  8  1  0  0  0  0 
  6  9  1  0  0  0  0 
  6  7  1  0  0  0  0 
  9 10  1  0  0  0  0 
 10 11  1  0  0  0  0 
 10 12  1  0  0  0  0 
 10 13  1  0  0  0  0 
 13 16  1  0  0  0  0 
 13 14  1  0  0  0  0 
 13 15  1  0  0  0  0 
 16 17  1  0  0  0  0 
 17 18  1  0  0  0  0 
 17 19  1  0  0  0  0 
 17 20  1  0  0  0  0 
 20 21  1  0  0  0  0 
 21 24  1  0  0  0  0 
 21 22  1  0  0  0  0 
 21 23  1  0  0  0  0 
M  END
