
  CDK     1209201322

 31 32  0  0  0  0  0  0  0  0999 V2000
    0.0000    2.5710    0.0000 C   0  0  0  0  0  0  0  0  0  0  0  0
    1.4772    2.3105    0.0000 H   0  0  0  0  0  0  0  0  0  0  0  0
    0.5130    3.9805    0.0000 H   0  0  0  0  0  0  0  0  0  0  0  0
   -1.2990    3.3210    0.0000 N   0  0  0  0  0  4  0  0  0  0  0  0
   -0.3349    4.4701    0.0000 H   0  0  0  0  0  0  0  0  0  0  0  0
   -1.8121    1.9115    0.0000 C   0  0  0  0  0  0  0  0  0  0  0  0
   -0.3349    1.6510    0.0000 H   0  0  0  0  0  0  0  0  0  0  0  0
   -1.8121    0.4115    0.0000 H   0  0  0  0  0  0  0  0  0  0  0  0
   -2.2632    4.4701    0.0000 C   0  0  0  0  0  0  0  0  0  0  0  0
   -2.7762    5.8796    0.0000 H   0  0  0  0  0  0  0  0  0  0  0  0
   -0.9642    5.2201    0.0000 H   0  0  0  0  0  0  0  0  0  0  0  0
   -3.2893    1.6510    0.0000 C   0  0  0  0  0  0  0  0  0  0  0  0
   -2.7762    0.2414    0.0000 H   0  0  0  0  0  0  0  0  0  0  0  0
   -4.5883    0.9010    0.0000 H   0  0  0  0  0  0  0  0  0  0  0  0
   -4.2535    2.8001    0.0000 C   0  0  0  0  0  0  0  0  0  0  0  0
   -5.5525    3.5501    0.0000 H   0  0  0  0  0  0  0  0  0  0  0  0
   -5.2176    1.6510    0.0000 H   0  0  0  0  0  0  0  0  0  0  0  0
   -3.7404    4.2096    0.0000 C   0  0  0  0  0  0  0  0  0  0  0  0
   -3.7404    5.7096    0.0000 H   0  0  0  0  0  0  0  0  0  0  0  0
   -5.2176    4.4701    0.0000 H   0  0  0  0  0  0  0  0  0  0  0  0
    0.0000    1.0710    0.0000 C   0  0  0  0  0  0  0  0  0  0  0  0
   -1.2990    0.3210    0.0000 C   0  0  0  0  0  0  0  0  0  0  0  0
   -2.5980    1.0710    0.0000 H   0  0  0  0  0  0  0  0  0  0  0  0
    1.2990    0.3210    0.0000 C   0  0  0  0  0  0  0  0  0  0  0  0
    2.5980    1.0710    0.0000 H   0  0  0  0  0  0  0  0  0  0  0  0
   -1.2990   -1.1790    0.0000 C   0  0  0  0  0  0  0  0  0  0  0  0
   -2.5980   -1.9290    0.0000 H   0  0  0  0  0  0  0  0  0  0  0  0
    1.2990   -1.1790    0.0000 C   0  0  0  0  0  0  0  0  0  0  0  0
    2.5980   -1.9290    0.0000 H   0  0  0  0  0  0  0  0  0  0  0  0
    0.0000   -1.9290    0.0000 C   0  0  0  0  0  0  0  0  0  0  0  0
   -0.0000   -3.4290    0.0000 H   0  0  0  0  0  0  0  0  0  0  0  0
  1  2  1  0  0  0  0 
  1  3  1  0  0  0  0 
  1  4  1  0  0  0  0 
  1 21  1  0  0  0  0 
  4  9  1  0  0  0  0 
  4  5  1  0  0  0  0 
  4  6  1  0  0  0  0 
  6  8  1  0  0  0  0 
  6 12  1  0  0  0  0 
  6  7  1  0  0  0  0 
  9 18  1  0  0  0  0 
  9 11  1  0  0  0  0 
  9 10  1  0  0  0  0 
 12 14  1  0  0  0  0 
 12 13  1  0  0  0  0 
 12 15  1  0  0  0  0 
 15 16  1  0  0  0  0 
 15 17  1  0  0  0  0 
 15 18  1  0  0  0  0 
 18 19  1  0  0  0  0 
 18 20  1  0  0  0  0 
 21 24  1  0  0  0  0 
 21 22  1  0  0  0  0 
 22 26  1  0  0  0  0 
 22 23  1  0  0  0  0 
 24 25  1  0  0  0  0 
 24 28  1  0  0  0  0 
 26 27  1  0  0  0  0 
 26 30  1  0  0  0  0 
 28 29  1  0  0  0  0 
 28 30  1  0  0  0  0 
 30 31  1  0  0  0  0 
M  END
