
  CDK     1209201322

 38 38  0  0  0  0  0  0  0  0999 V2000
    1.2990   -0.7500    0.0000 N   0  0  0  0  0  0  0  0  0  0  0  0
    1.2990    0.7500    0.0000 C   0  0  0  0  0  0  0  0  0  0  0  0
    2.5980    1.5000    0.0000 N   0  0  0  0  0  0  0  0  0  0  0  0
    3.8971    0.7500    0.0000 H   0  0  0  0  0  0  0  0  0  0  0  0
    0.0000    1.5000    0.0000 N   0  0  0  0  0  0  0  0  0  0  0  0
    0.0000    3.0000    0.0000 H   0  0  0  0  0  0  0  0  0  0  0  0
   -1.2990    0.7500    0.0000 C   0  0  0  0  0  0  0  0  0  0  0  0
   -2.5980    1.5000    0.0000 N   0  0  0  0  0  2  0  0  0  0  0  0
   -3.8971    0.7500    0.0000 H   0  0  0  0  0  0  0  0  0  0  0  0
   -1.2990   -0.7500    0.0000 C   0  0  0  0  0  0  0  0  0  0  0  0
   -2.5980   -1.5000    0.0000 H   0  0  0  0  0  0  0  0  0  0  0  0
    0.0000   -1.5000    0.0000 C   0  0  0  0  0  0  0  0  0  0  0  0
   -0.0000   -3.0000    0.0000 H   0  0  0  0  0  0  0  0  0  0  0  0
    2.5981    3.0000    0.0000 C   0  0  0  0  0  0  0  0  0  0  0  0
    1.1208    2.7395    0.0000 H   0  0  0  0  0  0  0  0  0  0  0  0
    2.0850    4.4095    0.0000 H   0  0  0  0  0  0  0  0  0  0  0  0
    3.8971    3.7500    0.0000 C   0  0  0  0  0  0  0  0  0  0  0  0
    4.4101    2.3404    0.0000 H   0  0  0  0  0  0  0  0  0  0  0  0
    5.3743    4.0104    0.0000 H   0  0  0  0  0  0  0  0  0  0  0  0
    3.8971    5.2500    0.0000 C   0  0  0  0  0  0  0  0  0  0  0  0
    3.3841    6.6595    0.0000 H   0  0  0  0  0  0  0  0  0  0  0  0
    2.4199    4.9895    0.0000 H   0  0  0  0  0  0  0  0  0  0  0  0
    5.1961    6.0000    0.0000 C   0  0  0  0  0  0  0  0  0  0  0  0
    5.7092    4.5904    0.0000 H   0  0  0  0  0  0  0  0  0  0  0  0
    6.6734    6.2604    0.0000 H   0  0  0  0  0  0  0  0  0  0  0  0
    5.1962    7.5000    0.0000 N   0  0  0  0  0  0  0  0  0  0  0  0
    3.8971    8.2500    0.0000 H   0  0  0  0  0  0  0  0  0  0  0  0
    6.4952    8.2500    0.0000 C   0  0  0  0  0  3  0  0  0  0  0  0
    6.4952    9.7500    0.0000 N   0  0  0  0  0  0  0  0  0  0  0  0
    7.7943   10.5000    0.0000 H   0  0  0  0  0  0  0  0  0  0  0  0
    5.1962   10.5000    0.0000 H   0  0  0  0  0  0  0  0  0  0  0  0
    7.7942    7.5000    0.0000 N   0  0  0  0  0  0  0  0  0  0  0  0
    9.0933    8.2500    0.0000 H   0  0  0  0  0  0  0  0  0  0  0  0
    7.7942    6.0000    0.0000 H   0  0  0  0  0  0  0  0  0  0  0  0
    2.5980   -1.5000    0.0000 C   0  0  0  0  0  0  0  0  0  0  0  0
    2.5981   -3.0000    0.0000 H   0  0  0  0  0  0  0  0  0  0  0  0
    4.0753   -1.7605    0.0000 H   0  0  0  0  0  0  0  0  0  0  0  0
    3.1111   -0.0904    0.0000 H   0  0  0  0  0  0  0  0  0  0  0  0
  1  2  1  0  0  0  0 
  1 35  1  0  0  0  0 
  1 12  1  0  0  0  0 
  2  3  1  0  0  0  0 
  2  5  1  0  0  0  0 
  3  4  1  0  0  0  0 
  3 14  1  0  0  0  0 
  5  6  1  0  0  0  0 
  5  7  1  0  0  0  0 
  7  8  1  0  0  0  0 
  7 10  1  0  0  0  0 
  8  9  1  0  0  0  0 
 10 11  1  0  0  0  0 
 10 12  1  0  0  0  0 
 12 13  1  0  0  0  0 
 14 16  1  0  0  0  0 
 14 17  1  0  0  0  0 
 14 15  1  0  0  0  0 
 17 18  1  0  0  0  0 
 17 19  1  0  0  0  0 
 17 20  1  0  0  0  0 
 20 21  1  0  0  0  0 
 20 22  1  0  0  0  0 
 20 23  1  0  0  0  0 
 23 24  1  0  0  0  0 
 23 25  1  0  0  0  0 
 23 26  1  0  0  0  0 
 26 27  1  0  0  0  0 
 26 28  1  0  0  0  0 
 28 32  1  0  0  0  0 
 28 29  1  0  0  0  0 
 29 30  1  0  0  0  0 
 29 31  1  0  0  0  0 
 32 33  1  0  0  0  0 
 32 34  1  0  0  0  0 
 35 36  1  0  0  0  0 
 35 37  1  0  0  0  0 
 35 38  1  0  0  0  0 
M  END
