
  CDK     1209201321

 34 35  0  0  0  0  0  0  0  0999 V2000
    1.6590    1.1850    0.0000 N   0  0  0  0  0  0  0  0  0  0  0  0
    2.5100   -0.0290    0.0000 C   0  0  0  0  0  0  0  0  0  0  0  0
    4.0097   -0.0601    0.0000 H   0  0  0  0  0  0  0  0  0  0  0  0
    1.6030   -1.2150    0.0000 N   0  0  0  0  0  0  0  0  0  0  0  0
    0.1800   -0.7410    0.0000 C   0  0  0  0  0  0  0  0  0  0  0  0
   -1.1590   -1.4100    0.0000 C   0  0  0  0  0  0  0  0  0  0  0  0
   -1.2140   -2.9090    0.0000 N   0  0  0  0  0  0  0  0  0  0  0  0
    0.0566   -3.7061    0.0000 H   0  0  0  0  0  0  0  0  0  0  0  0
   -2.4010   -0.6710    0.0000 N   0  0  0  0  0  0  0  0  0  0  0  0
   -2.3590    0.8500    0.0000 C   0  0  0  0  0  0  0  0  0  0  0  0
   -3.6411    1.6286    0.0000 H   0  0  0  0  0  0  0  0  0  0  0  0
   -1.1040    1.5470    0.0000 N   0  0  0  0  0  0  0  0  0  0  0  0
    0.1800    0.7940    0.0000 C   0  0  0  0  0  0  0  0  0  0  0  0
   -2.5397   -3.6108    0.0000 C   0  0  0  0  0  3  0  0  0  0  0  0
   -3.8104   -2.8137    0.0000 O   0  0  0  0  0  1  0  0  0  0  0  0
   -2.5947   -5.1098    0.0000 N   0  0  0  0  0  0  0  0  0  0  0  0
   -1.3241   -5.9070    0.0000 H   0  0  0  0  0  0  0  0  0  0  0  0
   -3.9204   -5.8117    0.0000 C   0  0  0  0  0  0  0  0  0  0  0  0
   -4.3814   -4.3842    0.0000 H   0  0  0  0  0  0  0  0  0  0  0  0
   -5.4062   -6.0178    0.0000 C   0  0  0  0  0  3  0  0  0  0  0  0
   -5.9706   -7.4075    0.0000 O   0  0  0  0  0  1  0  0  0  0  0  0
   -6.3276   -4.8341    0.0000 O   0  0  0  0  0  1  0  0  0  0  0  0
   -3.9755   -7.3106    0.0000 C   0  0  0  0  0  0  0  0  0  0  0  0
   -3.5145   -8.7381    0.0000 H   0  0  0  0  0  0  0  0  0  0  0  0
   -2.4897   -7.1045    0.0000 O   0  0  0  0  0  0  0  0  0  0  0  0
   -1.5683   -8.2882    0.0000 H   0  0  0  0  0  0  0  0  0  0  0  0
   -5.3011   -8.0125    0.0000 C   0  0  0  0  0  0  0  0  0  0  0  0
   -5.3562   -9.5115    0.0000 H   0  0  0  0  0  0  0  0  0  0  0  0
   -5.7621   -6.5851    0.0000 H   0  0  0  0  0  0  0  0  0  0  0  0
   -6.7869   -8.2186    0.0000 H   0  0  0  0  0  0  0  0  0  0  0  0
    2.1740    2.5938    0.0000 C   0  0  0  0  0  0  0  0  0  0  0  0
    3.6516    2.8522    0.0000 H   0  0  0  0  0  0  0  0  0  0  0  0
    2.1761    4.0938    0.0000 H   0  0  0  0  0  0  0  0  0  0  0  0
    0.6972    2.8564    0.0000 H   0  0  0  0  0  0  0  0  0  0  0  0
  1  2  1  0  0  0  0 
  1 13  1  0  0  0  0 
  1 31  1  0  0  0  0 
  2  3  1  0  0  0  0 
  2  4  1  0  0  0  0 
  4  5  1  0  0  0  0 
  5 13  1  0  0  0  0 
  5  6  1  0  0  0  0 
  6  9  1  0  0  0  0 
  6  7  1  0  0  0  0 
  7  8  1  0  0  0  0 
  7 14  1  0  0  0  0 
  9 10  1  0  0  0  0 
 10 11  1  0  0  0  0 
 10 12  1  0  0  0  0 
 12 13  1  0  0  0  0 
 14 16  1  0  0  0  0 
 14 15  1  0  0  0  0 
 16 17  1  0  0  0  0 
 16 18  1  0  0  0  0 
 18 19  1  0  0  0  0 
 18 20  1  0  0  0  0 
 18 23  1  0  0  0  0 
 20 21  1  0  0  0  0 
 20 22  1  0  0  0  0 
 23 24  1  0  0  0  0 
 23 25  1  0  0  0  0 
 23 27  1  0  0  0  0 
 25 26  1  0  0  0  0 
 27 28  1  0  0  0  0 
 27 29  1  0  0  0  0 
 27 30  1  0  0  0  0 
 31 32  1  0  0  0  0 
 31 33  1  0  0  0  0 
 31 34  1  0  0  0  0 
M  END
