
  CDK     1209201322

 37 38  0  0  0  0  0  0  0  0999 V2000
   -1.2130    0.7030    0.0000 C   0  0  0  0  0  0  0  0  0  0  0  0
   -2.5835    0.0934    0.0000 H   0  0  0  0  0  0  0  0  0  0  0  0
    0.0000    1.5840    0.0000 O   0  0  0  0  0  0  0  0  0  0  0  0
    1.2130    0.7030    0.0000 C   0  0  0  0  0  0  0  0  0  0  0  0
    2.5835    0.0934    0.0000 H   0  0  0  0  0  0  0  0  0  0  0  0
    1.9627    2.0022    0.0000 N   0  0  0  0  0  0  0  0  0  0  0  0
    1.2124    3.3011    0.0000 C   0  0  0  0  0  0  0  0  0  0  0  0
   -0.2876    3.3007    0.0000 H   0  0  0  0  0  0  0  0  0  0  0  0
    1.9620    4.6003    0.0000 C   0  0  0  0  0  0  0  0  0  0  0  0
    1.2117    5.8992    0.0000 H   0  0  0  0  0  0  0  0  0  0  0  0
    3.4627    2.0026    0.0000 C   0  0  0  0  0  0  0  0  0  0  0  0
    4.2130    0.7037    0.0000 O   0  0  0  0  0  0  0  0  0  0  0  0
    4.2124    3.3018    0.0000 N   0  0  0  0  0  0  0  0  0  0  0  0
    3.4620    4.6007    0.0000 C   0  0  0  0  0  0  0  0  0  0  0  0
    4.2117    5.8999    0.0000 N   0  0  0  0  0  0  0  0  0  0  0  0
    5.7117    5.9003    0.0000 H   0  0  0  0  0  0  0  0  0  0  0  0
    3.4614    7.1987    0.0000 H   0  0  0  0  0  0  0  0  0  0  0  0
    0.7500   -0.7240    0.0000 C   0  0  0  0  0  0  0  0  0  0  0  0
    2.2173   -1.0355    0.0000 H   0  0  0  0  0  0  0  0  0  0  0  0
    0.5934   -2.2158    0.0000 O   0  0  0  0  0  0  0  0  0  0  0  0
   -0.7768   -2.8261    0.0000 H   0  0  0  0  0  0  0  0  0  0  0  0
   -0.7500   -0.7240    0.0000 C   0  0  0  0  0  0  0  0  0  0  0  0
   -0.5934   -2.2158    0.0000 H   0  0  0  0  0  0  0  0  0  0  0  0
   -2.2173   -1.0355    0.0000 O   0  0  0  0  0  0  0  0  0  0  0  0
   -2.6812   -2.4619    0.0000 H   0  0  0  0  0  0  0  0  0  0  0  0
   -1.9627    2.0022    0.0000 C   0  0  0  0  0  0  0  0  0  0  0  0
   -0.5530    2.5149    0.0000 H   0  0  0  0  0  0  0  0  0  0  0  0
   -2.2228    3.4795    0.0000 H   0  0  0  0  0  0  0  0  0  0  0  0
   -3.4627    2.0026    0.0000 O   0  0  0  0  0  0  0  0  0  0  0  0
   -4.2124    3.3018    0.0000 P   0  0  0  0  0  4  0  0  0  0  0  0
   -4.4725    4.7791    0.0000 O   0  0  0  0  0  1  0  0  0  0  0  0
   -2.8027    3.8145    0.0000 O   0  0  0  0  0  0  0  0  0  0  0  0
   -5.7124    3.3022    0.0000 O   0  0  0  0  0  0  0  0  0  0  0  0
   -6.4620    4.6014    0.0000 P   0  0  0  0  0  4  0  0  0  0  0  0
   -7.9620    4.6018    0.0000 O   0  0  0  0  0  1  0  0  0  0  0  0
   -5.0524    5.1141    0.0000 O   0  0  0  0  0  1  0  0  0  0  0  0
   -6.7221    6.0787    0.0000 O   0  0  0  0  0  0  0  0  0  0  0  0
  1 26  1  0  0  0  0 
  1  3  1  0  0  0  0 
  1  2  1  0  0  0  0 
  1 22  1  0  0  0  0 
  3  4  1  0  0  0  0 
  4 18  1  0  0  0  0 
  4  5  1  0  0  0  0 
  4  6  1  0  0  0  0 
  6 11  1  0  0  0  0 
  6  7  1  0  0  0  0 
  7  8  1  0  0  0  0 
  7  9  1  0  0  0  0 
  9 10  1  0  0  0  0 
  9 14  1  0  0  0  0 
 11 12  1  0  0  0  0 
 11 13  1  0  0  0  0 
 13 14  1  0  0  0  0 
 14 15  1  0  0  0  0 
 15 16  1  0  0  0  0 
 15 17  1  0  0  0  0 
 18 20  1  0  0  0  0 
 18 19  1  0  0  0  0 
 18 22  1  0  0  0  0 
 20 21  1  0  0  0  0 
 22 24  1  0  0  0  0 
 22 23  1  0  0  0  0 
 24 25  1  0  0  0  0 
 26 27  1  0  0  0  0 
 26 28  1  0  0  0  0 
 26 29  1  0  0  0  0 
 29 30  1  0  0  0  0 
 30 32  1  0  0  0  0 
 30 33  1  0  0  0  0 
 30 31  1  0  0  0  0 
 33 34  1  0  0  0  0 
 34 35  1  0  0  0  0 
 34 36  1  0  0  0  0 
 34 37  1  0  0  0  0 
M  END
