
  CDK     1209201322

 14 14  0  0  0  0  0  0  0  0999 V2000
   -1.2980   -0.7520    0.0000 O   0  0  0  0  0  0  0  0  0  0  0  0
    0.0020   -1.5000    0.0000 C   0  0  0  0  0  0  0  0  0  0  0  0
   -0.9605   -2.6505    0.0000 H   0  0  0  0  0  0  0  0  0  0  0  0
    0.9679   -2.6476    0.0000 H   0  0  0  0  0  0  0  0  0  0  0  0
    1.3000   -0.7480    0.0000 O   0  0  0  0  0  0  0  0  0  0  0  0
    1.2980    0.7520    0.0000 C   0  0  0  0  0  0  0  0  0  0  0  0
    1.8090    2.1623    0.0000 H   0  0  0  0  0  0  0  0  0  0  0  0
    2.7756    0.4936    0.0000 H   0  0  0  0  0  0  0  0  0  0  0  0
   -0.0020    1.5000    0.0000 C   0  0  0  0  0  0  0  0  0  0  0  0
    0.9605    2.6505    0.0000 H   0  0  0  0  0  0  0  0  0  0  0  0
   -0.9679    2.6476    0.0000 H   0  0  0  0  0  0  0  0  0  0  0  0
   -1.3000    0.7480    0.0000 C   0  0  0  0  0  0  0  0  0  0  0  0
   -1.8151    2.1568    0.0000 H   0  0  0  0  0  0  0  0  0  0  0  0
   -2.7768    0.4855    0.0000 H   0  0  0  0  0  0  0  0  0  0  0  0
  1  2  1  0  0  0  0 
  1 12  1  0  0  0  0 
  2  3  1  0  0  0  0 
  2  4  1  0  0  0  0 
  2  5  1  0  0  0  0 
  5  6  1  0  0  0  0 
  6  8  1  0  0  0  0 
  6  9  1  0  0  0  0 
  6  7  1  0  0  0  0 
  9 10  1  0  0  0  0 
  9 11  1  0  0  0  0 
  9 12  1  0  0  0  0 
 12 13  1  0  0  0  0 
 12 14  1  0  0  0  0 
M  END
