
  CDK     1209201322

 19 19  0  0  0  0  0  0  0  0999 V2000
    0.0000    0.9490    0.0000 O   0  0  0  0  0  0  0  0  0  0  0  0
    1.2140    0.0670    0.0000 C   0  0  0  0  0  0  0  0  0  0  0  0
    0.7500   -1.3590    0.0000 C   0  0  0  0  0  0  0  0  0  0  0  0
   -0.7500   -1.3590    0.0000 C   0  0  0  0  0  0  0  0  0  0  0  0
   -1.2140    0.0670    0.0000 C   0  0  0  0  0  0  0  0  0  0  0  0
    1.9642    1.3659    0.0000 H   0  0  0  0  0  0  0  0  0  0  0  0
    2.2171   -1.6713    0.0000 H   0  0  0  0  0  0  0  0  0  0  0  0
    0.5930   -2.8508    0.0000 H   0  0  0  0  0  0  0  0  0  0  0  0
   -2.2171   -1.6713    0.0000 H   0  0  0  0  0  0  0  0  0  0  0  0
   -0.5930   -2.8508    0.0000 H   0  0  0  0  0  0  0  0  0  0  0  0
   -1.9642    1.3659    0.0000 H   0  0  0  0  0  0  0  0  0  0  0  0
   -2.5841   -0.5435    0.0000 C   0  0  0  0  0  0  0  0  0  0  0  0
   -3.7979    0.3379    0.0000 H   0  0  0  0  0  0  0  0  0  0  0  0
   -1.7450   -1.7868    0.0000 H   0  0  0  0  0  0  0  0  0  0  0  0
   -3.6629   -1.5858    0.0000 H   0  0  0  0  0  0  0  0  0  0  0  0
    2.5841   -0.5435    0.0000 C   0  0  0  0  0  0  0  0  0  0  0  0
    3.7979    0.3379    0.0000 H   0  0  0  0  0  0  0  0  0  0  0  0
    3.6629   -1.5858    0.0000 H   0  0  0  0  0  0  0  0  0  0  0  0
    1.7450   -1.7868    0.0000 H   0  0  0  0  0  0  0  0  0  0  0  0
  1  2  1  0  0  0  0 
  1  5  1  0  0  0  0 
  2 16  1  0  0  0  0 
  2  3  1  0  0  0  0 
  2  6  1  0  0  0  0 
  3  8  1  0  0  0  0 
  3  4  1  0  0  0  0 
  3  7  1  0  0  0  0 
  4  9  1  0  0  0  0 
  4 10  1  0  0  0  0 
  4  5  1  0  0  0  0 
  5 11  1  0  0  0  0 
  5 12  1  0  0  0  0 
 12 15  1  0  0  0  0 
 12 14  1  0  0  0  0 
 12 13  1  0  0  0  0 
 16 17  1  0  0  0  0 
 16 19  1  0  0  0  0 
 16 18  1  0  0  0  0 
M  END
