
  CDK     1209201322

 14 13  0  0  0  0  0  0  0  0999 V2000
    1.2990   -0.7500    0.0000 C   0  0  0  0  0  0  0  0  0  0  0  0
    2.5981   -0.0000    0.0000 C   0  0  0  0  0  3  0  0  0  0  0  0
    3.8971   -0.7500    0.0000 O   0  0  0  0  0  0  0  0  0  0  0  0
    5.1962   -0.0000    0.0000 C   0  0  0  0  0  0  0  0  0  0  0  0
    2.5981    1.5000    0.0000 O   0  0  0  0  0  1  0  0  0  0  0  0
    0.0000    0.0000    0.0000 H   0  0  0  0  0  0  0  0  0  0  0  0
    2.2632   -1.8991    0.0000 H   0  0  0  0  0  0  0  0  0  0  0  0
    0.3349   -1.8991    0.0000 H   0  0  0  0  0  0  0  0  0  0  0  0
    6.1603    1.1491    0.0000 H   0  0  0  0  0  0  0  0  0  0  0  0
    4.2320    1.1491    0.0000 H   0  0  0  0  0  0  0  0  0  0  0  0
    6.4952   -0.7500    0.0000 C   0  0  0  0  0  0  0  0  0  0  0  0
    7.7942   -0.0000    0.0000 H   0  0  0  0  0  0  0  0  0  0  0  0
    5.5310   -1.8991    0.0000 H   0  0  0  0  0  0  0  0  0  0  0  0
    7.4594   -1.8991    0.0000 H   0  0  0  0  0  0  0  0  0  0  0  0
  1  8  1  0  0  0  0 
  1  2  1  0  0  0  0 
  1  6  1  0  0  0  0 
  1  7  1  0  0  0  0 
  2  3  1  0  0  0  0 
  2  5  1  0  0  0  0 
  3  4  1  0  0  0  0 
  4 11  1  0  0  0  0 
  4  9  1  0  0  0  0 
  4 10  1  0  0  0  0 
 11 12  1  0  0  0  0 
 11 13  1  0  0  0  0 
 11 14  1  0  0  0  0 
M  END
