
  CDK     1209201322

 40 42  0  0  0  0  0  0  0  0999 V2000
    3.8662   -4.4971    0.0000 C   0  0  0  0  0  0  0  0  0  0  0  0
    3.3403   -5.9018    0.0000 H   0  0  0  0  0  0  0  0  0  0  0  0
    2.4141   -4.1209    0.0000 O   0  0  0  0  0  0  0  0  0  0  0  0
    2.3232   -2.6236    0.0000 C   0  0  0  0  0  0  0  0  0  0  0  0
    0.8437   -2.8705    0.0000 H   0  0  0  0  0  0  0  0  0  0  0  0
    1.9230   -1.1780    0.0000 N   0  0  0  0  0  0  0  0  0  0  0  0
    0.5890   -0.6650    0.0000 C   0  0  0  0  0  0  0  0  0  0  0  0
   -3.4170   -1.2609    0.0000 N   0  0  0  0  0  0  0  0  0  0  0  0
   -4.6780   -0.4486    0.0000 H   0  0  0  0  0  0  0  0  0  0  0  0
   -3.4900   -2.7591    0.0000 H   0  0  0  0  0  0  0  0  0  0  0  0
   -0.8860   -1.3700    0.0000 N   0  0  0  0  0  0  0  0  0  0  0  0
   -2.0830   -0.5750    0.0000 C   0  0  0  0  0  0  0  0  0  0  0  0
   -2.0310    0.9240    0.0000 N   0  0  0  0  0  0  0  0  0  0  0  0
   -3.3034    1.7184    0.0000 H   0  0  0  0  0  0  0  0  0  0  0  0
   -0.7070    1.6290    0.0000 C   0  0  0  0  0  0  0  0  0  0  0  0
   -0.6550    3.1281    0.0000 O   0  0  0  0  0  0  0  0  0  0  0  0
    0.5650    0.8340    0.0000 C   0  0  0  0  0  0  0  0  0  0  0  0
    2.0080    1.2480    0.0000 N   0  0  0  0  0  0  0  0  0  0  0  0
    2.8470    0.0040    0.0000 C   0  0  0  0  0  0  0  0  0  0  0  0
    4.3461   -0.0486    0.0000 H   0  0  0  0  0  0  0  0  0  0  0  0
    3.7191   -2.0745    0.0000 C   0  0  0  0  0  0  0  0  0  0  0  0
    4.9703   -1.2471    0.0000 H   0  0  0  0  0  0  0  0  0  0  0  0
    3.0271   -0.7437    0.0000 O   0  0  0  0  0  0  0  0  0  0  0  0
    3.8336    0.5211    0.0000 H   0  0  0  0  0  0  0  0  0  0  0  0
    4.6727   -3.2323    0.0000 C   0  0  0  0  0  0  0  0  0  0  0  0
    5.8462   -4.1666    0.0000 H   0  0  0  0  0  0  0  0  0  0  0  0
    5.7245   -2.1629    0.0000 O   0  0  0  0  0  0  0  0  0  0  0  0
    7.1766   -2.5391    0.0000 H   0  0  0  0  0  0  0  0  0  0  0  0
    5.2083   -5.1670    0.0000 C   0  0  0  0  0  0  0  0  0  0  0  0
    6.6986   -5.3374    0.0000 H   0  0  0  0  0  0  0  0  0  0  0  0
    5.6350   -3.7289    0.0000 H   0  0  0  0  0  0  0  0  0  0  0  0
    5.2992   -6.6642    0.0000 O   0  0  0  0  0  0  0  0  0  0  0  0
    6.6413   -7.3341    0.0000 P   0  0  0  0  0  4  0  0  0  0  0  0
    8.1316   -7.5045    0.0000 O   0  0  0  0  0  1  0  0  0  0  0  0
    7.0680   -5.8960    0.0000 O   0  0  0  0  0  0  0  0  0  0  0  0
    6.7322   -8.8313    0.0000 O   0  0  0  0  0  0  0  0  0  0  0  0
    8.0743   -9.5012    0.0000 P   0  0  0  0  0  4  0  0  0  0  0  0
    8.1653  -10.9985    0.0000 O   0  0  0  0  0  1  0  0  0  0  0  0
    8.5010   -8.0632    0.0000 O   0  0  0  0  0  1  0  0  0  0  0  0
    9.5646   -9.6717    0.0000 O   0  0  0  0  0  0  0  0  0  0  0  0
  1 25  1  0  0  0  0 
  1  2  1  0  0  0  0 
  1  3  1  0  0  0  0 
  1 29  1  0  0  0  0 
  3  4  1  0  0  0  0 
  4 21  1  0  0  0  0 
  4  6  1  0  0  0  0 
  4  5  1  0  0  0  0 
  6 19  1  0  0  0  0 
  6  7  1  0  0  0  0 
  7 17  1  0  0  0  0 
  7 11  1  0  0  0  0 
  8  9  1  0  0  0  0 
  8 10  1  0  0  0  0 
  8 12  1  0  0  0  0 
 11 12  1  0  0  0  0 
 12 13  1  0  0  0  0 
 13 14  1  0  0  0  0 
 13 15  1  0  0  0  0 
 15 16  1  0  0  0  0 
 15 17  1  0  0  0  0 
 17 18  1  0  0  0  0 
 18 19  1  0  0  0  0 
 19 20  1  0  0  0  0 
 21 25  1  0  0  0  0 
 21 22  1  0  0  0  0 
 21 23  1  0  0  0  0 
 23 24  1  0  0  0  0 
 25 26  1  0  0  0  0 
 25 27  1  0  0  0  0 
 27 28  1  0  0  0  0 
 29 32  1  0  0  0  0 
 29 30  1  0  0  0  0 
 29 31  1  0  0  0  0 
 32 33  1  0  0  0  0 
 33 34  1  0  0  0  0 
 33 35  1  0  0  0  0 
 33 36  1  0  0  0  0 
 36 37  1  0  0  0  0 
 37 40  1  0  0  0  0 
 37 38  1  0  0  0  0 
 37 39  1  0  0  0  0 
M  END
