
  CDK     1209201322

 33 35  0  0  0  0  0  0  0  0999 V2000
    2.5981    1.5000    0.0000 C   0  0  0  0  0  0  0  0  0  0  0  0
    3.8971    2.2500    0.0000 H   0  0  0  0  0  0  0  0  0  0  0  0
    2.5981   -0.0000    0.0000 C   0  0  0  0  0  0  0  0  0  0  0  0
    3.8971   -0.7500    0.0000 H   0  0  0  0  0  0  0  0  0  0  0  0
    1.2990   -0.7500    0.0000 C   0  0  0  0  0  0  0  0  0  0  0  0
    1.2990   -2.2500    0.0000 H   0  0  0  0  0  0  0  0  0  0  0  0
    0.0000    0.0000    0.0000 C   0  0  0  0  0  0  0  0  0  0  0  0
    0.0000    1.5000    0.0000 C   0  0  0  0  0  0  0  0  0  0  0  0
    1.2990    2.2500    0.0000 C   0  0  0  0  0  0  0  0  0  0  0  0
    1.2990    3.7500    0.0000 H   0  0  0  0  0  0  0  0  0  0  0  0
   -1.4266    1.9635    0.0000 N   0  0  0  0  0  0  0  0  0  0  0  0
   -1.8901    3.3901    0.0000 C   0  0  0  0  0  0  0  0  0  0  0  0
   -0.8864    4.5048    0.0000 H   0  0  0  0  0  0  0  0  0  0  0  0
   -2.8136    4.5721    0.0000 H   0  0  0  0  0  0  0  0  0  0  0  0
   -3.2145    2.6859    0.0000 H   0  0  0  0  0  0  0  0  0  0  0  0
   -2.3083    0.7500    0.0000 C   0  0  0  0  0  0  0  0  0  0  0  0
   -1.4266   -0.4635    0.0000 C   0  0  0  0  0  0  0  0  0  0  0  0
   -3.8083    0.7500    0.0000 O   0  0  0  0  0  0  0  0  0  0  0  0
   -2.8938   -0.7754    0.0000 C   0  0  0  0  0  0  0  0  0  0  0  0
   -2.9462    0.7237    0.0000 H   0  0  0  0  0  0  0  0  0  0  0  0
   -4.3792   -0.5666    0.0000 H   0  0  0  0  0  0  0  0  0  0  0  0
   -3.3573   -2.2020    0.0000 C   0  0  0  0  0  0  0  0  0  0  0  0
   -4.2808   -3.3840    0.0000 H   0  0  0  0  0  0  0  0  0  0  0  0
   -4.6818   -1.4978    0.0000 H   0  0  0  0  0  0  0  0  0  0  0  0
   -2.3536   -3.3167    0.0000 C   0  0  0  0  0  0  0  0  0  0  0  0
   -3.6257   -4.1116    0.0000 H   0  0  0  0  0  0  0  0  0  0  0  0
   -1.7917   -4.7075    0.0000 H   0  0  0  0  0  0  0  0  0  0  0  0
   -0.8864   -3.0048    0.0000 C   0  0  0  0  0  0  0  0  0  0  0  0
   -0.8341   -4.5039    0.0000 H   0  0  0  0  0  0  0  0  0  0  0  0
    0.5990   -3.2136    0.0000 H   0  0  0  0  0  0  0  0  0  0  0  0
   -0.4229   -1.5782    0.0000 C   0  0  0  0  0  0  0  0  0  0  0  0
    0.9015   -2.2824    0.0000 H   0  0  0  0  0  0  0  0  0  0  0  0
    0.5006   -0.3962    0.0000 H   0  0  0  0  0  0  0  0  0  0  0  0
  1  9  1  0  0  0  0 
  1  2  1  0  0  0  0 
  1  3  1  0  0  0  0 
  3  4  1  0  0  0  0 
  3  5  1  0  0  0  0 
  5  6  1  0  0  0  0 
  5  7  1  0  0  0  0 
  7  8  1  0  0  0  0 
  7 17  1  0  0  0  0 
  8  9  1  0  0  0  0 
  8 11  1  0  0  0  0 
  9 10  1  0  0  0  0 
 11 16  1  0  0  0  0 
 11 12  1  0  0  0  0 
 12 13  1  0  0  0  0 
 12 14  1  0  0  0  0 
 12 15  1  0  0  0  0 
 16 17  1  0  0  0  0 
 16 18  1  0  0  0  0 
 17 31  1  0  0  0  0 
 17 19  1  0  0  0  0 
 19 20  1  0  0  0  0 
 19 21  1  0  0  0  0 
 19 22  1  0  0  0  0 
 22 24  1  0  0  0  0 
 22 25  1  0  0  0  0 
 22 23  1  0  0  0  0 
 25 26  1  0  0  0  0 
 25 27  1  0  0  0  0 
 25 28  1  0  0  0  0 
 28 29  1  0  0  0  0 
 28 30  1  0  0  0  0 
 28 31  1  0  0  0  0 
 31 32  1  0  0  0  0 
 31 33  1  0  0  0  0 
M  END
