
  CDK     1209201322

 29 30  0  0  0  0  0  0  0  0999 V2000
   -0.0000   -1.2760    0.0000 O   0  0  0  0  0  0  0  0  0  0  0  0
   -1.2130   -0.3940    0.0000 C   0  0  0  0  0  0  0  0  0  0  0  0
   -2.5833    0.2161    0.0000 H   0  0  0  0  0  0  0  0  0  0  0  0
    1.2140   -0.3940    0.0000 C   0  0  0  0  0  0  0  0  0  0  0  0
    1.9642   -1.6929    0.0000 H   0  0  0  0  0  0  0  0  0  0  0  0
    0.7500    1.0320    0.0000 C   0  0  0  0  0  0  0  0  0  0  0  0
    0.5930    2.5238    0.0000 H   0  0  0  0  0  0  0  0  0  0  0  0
    2.2171    1.3443    0.0000 H   0  0  0  0  0  0  0  0  0  0  0  0
    2.5841    0.2165    0.0000 N   0  0  0  0  0  0  0  0  0  0  0  0
    2.7405    1.7083    0.0000 C   0  0  0  0  0  0  0  0  0  0  0  0
    1.5268    2.5897    0.0000 H   0  0  0  0  0  0  0  0  0  0  0  0
    3.7979   -0.6649    0.0000 C   0  0  0  0  0  0  0  0  0  0  0  0
    3.6415   -2.1567    0.0000 O   0  0  0  0  0  0  0  0  0  0  0  0
    5.1681   -0.0544    0.0000 N   0  0  0  0  0  0  0  0  0  0  0  0
    5.3244    1.4375    0.0000 C   0  0  0  0  0  0  0  0  0  0  0  0
    6.6946    2.0479    0.0000 N   0  0  0  0  0  0  0  0  0  0  0  0
    7.9084    1.1666    0.0000 H   0  0  0  0  0  0  0  0  0  0  0  0
    6.8510    3.5398    0.0000 H   0  0  0  0  0  0  0  0  0  0  0  0
    4.1107    2.3188    0.0000 C   0  0  0  0  0  0  0  0  0  0  0  0
    4.2671    3.8106    0.0000 H   0  0  0  0  0  0  0  0  0  0  0  0
   -0.5933    2.5238    0.0000 H   0  0  0  0  0  0  0  0  0  0  0  0
   -0.7500    1.0320    0.0000 C   0  0  0  0  0  0  0  0  0  0  0  0
   -2.2173    1.3437    0.0000 O   0  0  0  0  0  0  0  0  0  0  0  0
   -3.2208    0.2288    0.0000 H   0  0  0  0  0  0  0  0  0  0  0  0
   -1.9632   -1.6929    0.0000 C   0  0  0  0  0  0  0  0  0  0  0  0
   -0.5538   -2.2062    0.0000 H   0  0  0  0  0  0  0  0  0  0  0  0
   -2.2240   -3.1701    0.0000 H   0  0  0  0  0  0  0  0  0  0  0  0
   -3.4632   -1.6926    0.0000 O   0  0  0  0  0  0  0  0  0  0  0  0
   -4.2135   -2.9915    0.0000 H   0  0  0  0  0  0  0  0  0  0  0  0
  1  2  1  0  0  0  0 
  1  4  1  0  0  0  0 
  2  3  1  0  0  0  0 
  2 22  1  0  0  0  0 
  2 25  1  0  0  0  0 
  4  5  1  0  0  0  0 
  4  6  1  0  0  0  0 
  4  9  1  0  0  0  0 
  6  8  1  0  0  0  0 
  6 22  1  0  0  0  0 
  6  7  1  0  0  0  0 
  9 12  1  0  0  0  0 
  9 10  1  0  0  0  0 
 10 19  1  0  0  0  0 
 10 11  1  0  0  0  0 
 12 13  1  0  0  0  0 
 12 14  1  0  0  0  0 
 14 15  1  0  0  0  0 
 15 16  1  0  0  0  0 
 15 19  1  0  0  0  0 
 16 17  1  0  0  0  0 
 16 18  1  0  0  0  0 
 19 20  1  0  0  0  0 
 21 22  1  0  0  0  0 
 22 23  1  0  0  0  0 
 23 24  1  0  0  0  0 
 25 27  1  0  0  0  0 
 25 28  1  0  0  0  0 
 25 26  1  0  0  0  0 
 28 29  1  0  0  0  0 
M  END
