
  CDK     1209201322

 28 27  0  0  0  0  0  0  0  0999 V2000
    2.5981   -0.0000    0.0000 N   0  0  0  0  0  4  0  0  0  0  0  0
    3.8971   -0.7500    0.0000 C   0  0  0  0  0  0  0  0  0  0  0  0
    1.2990   -0.7500    0.0000 C   0  0  0  0  0  0  0  0  0  0  0  0
    3.5623    1.1491    0.0000 C   0  0  0  0  0  0  0  0  0  0  0  0
    1.6339    1.1491    0.0000 C   0  0  0  0  0  0  0  0  0  0  0  0
    2.9329   -1.8991    0.0000 H   0  0  0  0  0  0  0  0  0  0  0  0
    4.8613   -1.8991    0.0000 H   0  0  0  0  0  0  0  0  0  0  0  0
    0.0000    0.0000    0.0000 H   0  0  0  0  0  0  0  0  0  0  0  0
    2.2632   -1.8991    0.0000 H   0  0  0  0  0  0  0  0  0  0  0  0
    0.3349   -1.8991    0.0000 H   0  0  0  0  0  0  0  0  0  0  0  0
    3.0492    2.5586    0.0000 H   0  0  0  0  0  0  0  0  0  0  0  0
    4.5264   -0.0000    0.0000 H   0  0  0  0  0  0  0  0  0  0  0  0
    4.8613    1.8991    0.0000 H   0  0  0  0  0  0  0  0  0  0  0  0
    0.1567    0.8886    0.0000 H   0  0  0  0  0  0  0  0  0  0  0  0
    1.1209    2.5586    0.0000 H   0  0  0  0  0  0  0  0  0  0  0  0
    2.9329    1.8991    0.0000 H   0  0  0  0  0  0  0  0  0  0  0  0
    5.1962   -0.0000    0.0000 C   0  0  0  0  0  0  0  0  0  0  0  0
    4.2320    1.1491    0.0000 H   0  0  0  0  0  0  0  0  0  0  0  0
    6.1603    1.1491    0.0000 H   0  0  0  0  0  0  0  0  0  0  0  0
    7.7942   -0.0000    0.0000 P   0  0  0  0  0  4  0  0  0  0  0  0
    8.7584    1.1491    0.0000 O   0  0  0  0  0  1  0  0  0  0  0  0
    6.8300    1.1491    0.0000 O   0  0  0  0  0  0  0  0  0  0  0  0
    6.4952   -0.7500    0.0000 O   0  0  0  0  0  0  0  0  0  0  0  0
    9.0933   -0.7500    0.0000 O   0  0  0  0  0  0  0  0  0  0  0  0
   10.3923   -0.0000    0.0000 C   0  0  0  0  0  0  0  0  0  0  0  0
   11.6913   -0.7500    0.0000 H   0  0  0  0  0  0  0  0  0  0  0  0
   11.3565    1.1491    0.0000 H   0  0  0  0  0  0  0  0  0  0  0  0
    9.4281    1.1491    0.0000 H   0  0  0  0  0  0  0  0  0  0  0  0
  1  2  1  0  0  0  0 
  1  3  1  0  0  0  0 
  1  4  1  0  0  0  0 
  1  5  1  0  0  0  0 
  2 17  1  0  0  0  0 
  2  6  1  0  0  0  0 
  2  7  1  0  0  0  0 
  3  8  1  0  0  0  0 
  3 10  1  0  0  0  0 
  3  9  1  0  0  0  0 
  4 11  1  0  0  0  0 
  4 12  1  0  0  0  0 
  4 13  1  0  0  0  0 
  5 16  1  0  0  0  0 
  5 14  1  0  0  0  0 
  5 15  1  0  0  0  0 
 17 19  1  0  0  0  0 
 17 18  1  0  0  0  0 
 17 23  1  0  0  0  0 
 20 24  1  0  0  0  0 
 20 21  1  0  0  0  0 
 20 22  1  0  0  0  0 
 20 23  1  0  0  0  0 
 24 25  1  0  0  0  0 
 25 26  1  0  0  0  0 
 25 27  1  0  0  0  0 
 25 28  1  0  0  0  0 
M  END
