
  CDK     1209201322

 19 19  0  0  0  0  0  0  0  0999 V2000
    1.2140   -0.0680    0.0000 N   0  0  0  0  0  0  0  0  0  0  0  0
    2.5843   -0.6780    0.0000 H   0  0  0  0  0  0  0  0  0  0  0  0
    1.9636    1.2313    0.0000 H   0  0  0  0  0  0  0  0  0  0  0  0
    0.7500   -1.4950    0.0000 C   0  0  0  0  0  0  0  0  0  0  0  0
   -1.2130   -0.0680    0.0000 C   0  0  0  0  0  0  0  0  0  0  0  0
   -0.7500   -1.4950    0.0000 C   0  0  0  0  0  0  0  0  0  0  0  0
   -0.0000    0.8130    0.0000 C   0  0  0  0  0  0  0  0  0  0  0  0
    1.0033    1.9280    0.0000 C   0  0  0  0  0  3  0  0  0  0  0  0
    2.4707    1.6166    0.0000 O   0  0  0  0  0  1  0  0  0  0  0  0
   -1.0038    1.9276    0.0000 H   0  0  0  0  0  0  0  0  0  0  0  0
   -1.9627    1.2312    0.0000 H   0  0  0  0  0  0  0  0  0  0  0  0
   -2.5835   -0.6776    0.0000 H   0  0  0  0  0  0  0  0  0  0  0  0
   -0.5934   -2.9868    0.0000 H   0  0  0  0  0  0  0  0  0  0  0  0
   -2.2173   -1.8065    0.0000 H   0  0  0  0  0  0  0  0  0  0  0  0
    2.2172   -1.8071    0.0000 H   0  0  0  0  0  0  0  0  0  0  0  0
    0.5931   -2.9868    0.0000 H   0  0  0  0  0  0  0  0  0  0  0  0
    0.5394    3.3545    0.0000 N   0  0  0  0  0  0  0  0  0  0  0  0
    1.5427    4.4695    0.0000 H   0  0  0  0  0  0  0  0  0  0  0  0
   -0.9279    3.6659    0.0000 H   0  0  0  0  0  0  0  0  0  0  0  0
  1  2  1  0  0  0  0 
  1  3  1  0  0  0  0 
  1  4  1  0  0  0  0 
  1  7  1  0  0  0  0 
  4 16  1  0  0  0  0 
  4  6  1  0  0  0  0 
  4 15  1  0  0  0  0 
  5 11  1  0  0  0  0 
  5 12  1  0  0  0  0 
  5  6  1  0  0  0  0 
  5  7  1  0  0  0  0 
  6 14  1  0  0  0  0 
  6 13  1  0  0  0  0 
  7  8  1  0  0  0  0 
  7 10  1  0  0  0  0 
  8 17  1  0  0  0  0 
  8  9  1  0  0  0  0 
 17 18  1  0  0  0  0 
 17 19  1  0  0  0  0 
M  END
