
  CDK     1209201321

 21 21  0  0  0  0  0  0  0  0999 V2000
    0.7500    1.0320    0.0000 C   0  0  0  0  0  0  0  0  0  0  0  0
    1.6318    2.2454    0.0000 H   0  0  0  0  0  0  0  0  0  0  0  0
    1.2130   -0.3940    0.0000 C   0  0  0  0  0  0  0  0  0  0  0  0
    2.6396   -0.8574    0.0000 H   0  0  0  0  0  0  0  0  0  0  0  0
    0.0000   -1.2760    0.0000 N   0  0  0  0  0  0  0  0  0  0  0  0
    0.0003   -2.7760    0.0000 H   0  0  0  0  0  0  0  0  0  0  0  0
   -1.2140   -0.3940    0.0000 C   0  0  0  0  0  0  0  0  0  0  0  0
   -2.6407   -0.8572    0.0000 H   0  0  0  0  0  0  0  0  0  0  0  0
   -0.7500    1.0320    0.0000 C   0  0  0  0  0  0  0  0  0  0  0  0
   -1.6314    2.2457    0.0000 C   0  0  0  0  0  0  0  0  0  0  0  0
   -0.2831    2.9030    0.0000 H   0  0  0  0  0  0  0  0  0  0  0  0
   -2.0446    3.6877    0.0000 H   0  0  0  0  0  0  0  0  0  0  0  0
   -3.1232    2.0892    0.0000 C   0  0  0  0  0  0  0  0  0  0  0  0
   -2.7101    0.6473    0.0000 H   0  0  0  0  0  0  0  0  0  0  0  0
   -4.0047    3.3029    0.0000 O   0  0  0  0  0  0  0  0  0  0  0  0
   -5.4965    3.1465    0.0000 O   0  0  0  0  0  0  0  0  0  0  0  0
   -6.3779    4.3602    0.0000 H   0  0  0  0  0  0  0  0  0  0  0  0
   -4.4716    1.4320    0.0000 C   0  0  0  0  0  0  0  0  0  0  0  0
   -5.7149    2.2710    0.0000 H   0  0  0  0  0  0  0  0  0  0  0  0
   -5.5138    0.3532    0.0000 H   0  0  0  0  0  0  0  0  0  0  0  0
   -3.5901    0.2182    0.0000 H   0  0  0  0  0  0  0  0  0  0  0  0
  1  9  1  0  0  0  0 
  1  2  1  0  0  0  0 
  1  3  1  0  0  0  0 
  3  4  1  0  0  0  0 
  3  5  1  0  0  0  0 
  5  6  1  0  0  0  0 
  5  7  1  0  0  0  0 
  7  8  1  0  0  0  0 
  7  9  1  0  0  0  0 
  9 10  1  0  0  0  0 
 10 11  1  0  0  0  0 
 10 12  1  0  0  0  0 
 10 13  1  0  0  0  0 
 13 18  1  0  0  0  0 
 13 14  1  0  0  0  0 
 13 15  1  0  0  0  0 
 15 16  1  0  0  0  0 
 16 17  1  0  0  0  0 
 18 19  1  0  0  0  0 
 18 20  1  0  0  0  0 
 18 21  1  0  0  0  0 
M  END
