
  CDK     1209201322

 19 19  0  0  0  0  0  0  0  0999 V2000
   -0.0000   -1.2760    0.0000 O   0  0  0  0  0  0  0  0  0  0  0  0
   -1.2130   -0.3940    0.0000 C   0  0  0  0  0  0  0  0  0  0  0  0
   -2.5833    0.2161    0.0000 H   0  0  0  0  0  0  0  0  0  0  0  0
   -1.9632   -1.6929    0.0000 H   0  0  0  0  0  0  0  0  0  0  0  0
    1.2140   -0.3940    0.0000 C   0  0  0  0  0  0  0  0  0  0  0  0
    1.9642   -1.6929    0.0000 H   0  0  0  0  0  0  0  0  0  0  0  0
    2.5841    0.2165    0.0000 H   0  0  0  0  0  0  0  0  0  0  0  0
   -0.7500    1.0320    0.0000 C   0  0  0  0  0  0  0  0  0  0  0  0
   -0.5933    2.5238    0.0000 H   0  0  0  0  0  0  0  0  0  0  0  0
   -2.2173    1.3437    0.0000 O   0  0  0  0  0  0  0  0  0  0  0  0
   -2.6810    2.7702    0.0000 H   0  0  0  0  0  0  0  0  0  0  0  0
    0.7500    1.0320    0.0000 C   0  0  0  0  0  0  0  0  0  0  0  0
    0.5930    2.5238    0.0000 H   0  0  0  0  0  0  0  0  0  0  0  0
    2.2171    1.3443    0.0000 O   0  0  0  0  0  0  0  0  0  0  0  0
    2.6803    2.7710    0.0000 P   0  0  0  0  0  4  0  0  0  0  0  0
    2.6275    4.2701    0.0000 O   0  0  0  0  0  1  0  0  0  0  0  0
    1.1948    2.9793    0.0000 O   0  0  0  0  0  0  0  0  0  0  0  0
    4.1474    3.0833    0.0000 O   0  0  0  0  0  0  0  0  0  0  0  0
    4.6105    4.5100    0.0000 H   0  0  0  0  0  0  0  0  0  0  0  0
  1  2  1  0  0  0  0 
  1  5  1  0  0  0  0 
  2  8  1  0  0  0  0 
  2  3  1  0  0  0  0 
  2  4  1  0  0  0  0 
  5 12  1  0  0  0  0 
  5  6  1  0  0  0  0 
  5  7  1  0  0  0  0 
  8  9  1  0  0  0  0 
  8 12  1  0  0  0  0 
  8 10  1  0  0  0  0 
 10 11  1  0  0  0  0 
 12 14  1  0  0  0  0 
 12 13  1  0  0  0  0 
 14 15  1  0  0  0  0 
 15 16  1  0  0  0  0 
 15 17  1  0  0  0  0 
 15 18  1  0  0  0  0 
 18 19  1  0  0  0  0 
M  END
