
  CDK     1209201322

 29 28  0  0  0  0  0  0  0  0999 V2000
    1.2990   -0.7500    0.0000 C   0  0  0  0  0  0  0  0  0  0  0  0
    0.0000    0.0000    0.0000 H   0  0  0  0  0  0  0  0  0  0  0  0
    0.3349   -1.8991    0.0000 H   0  0  0  0  0  0  0  0  0  0  0  0
    2.2632   -1.8991    0.0000 H   0  0  0  0  0  0  0  0  0  0  0  0
    2.5981   -0.0000    0.0000 C   0  0  0  0  0  3  0  0  0  0  0  0
    2.5981    1.5000    0.0000 O   0  0  0  0  0  1  0  0  0  0  0  0
    3.8971   -0.7500    0.0000 O   0  0  0  0  0  0  0  0  0  0  0  0
    5.1962   -0.0000    0.0000 C   0  0  0  0  0  0  0  0  0  0  0  0
    6.1603    1.1491    0.0000 H   0  0  0  0  0  0  0  0  0  0  0  0
    4.2320    1.1491    0.0000 H   0  0  0  0  0  0  0  0  0  0  0  0
    6.4952   -0.7500    0.0000 C   0  0  0  0  0  0  0  0  0  0  0  0
    5.5310   -1.8991    0.0000 H   0  0  0  0  0  0  0  0  0  0  0  0
    7.4594   -1.8991    0.0000 O   0  0  0  0  0  0  0  0  0  0  0  0
    8.9366   -1.6386    0.0000 C   0  0  0  0  0  3  0  0  0  0  0  0
    9.4496   -0.2291    0.0000 O   0  0  0  0  0  1  0  0  0  0  0  0
    9.9008   -2.7877    0.0000 C   0  0  0  0  0  0  0  0  0  0  0  0
   11.3780   -2.5272    0.0000 H   0  0  0  0  0  0  0  0  0  0  0  0
    8.6017   -3.5377    0.0000 H   0  0  0  0  0  0  0  0  0  0  0  0
   10.4138   -4.1972    0.0000 H   0  0  0  0  0  0  0  0  0  0  0  0
    7.7942   -0.0000    0.0000 C   0  0  0  0  0  0  0  0  0  0  0  0
    8.7584    1.1491    0.0000 H   0  0  0  0  0  0  0  0  0  0  0  0
    6.8300    1.1491    0.0000 H   0  0  0  0  0  0  0  0  0  0  0  0
    9.0933   -0.7500    0.0000 O   0  0  0  0  0  0  0  0  0  0  0  0
   10.3923   -0.0000    0.0000 C   0  0  0  0  0  3  0  0  0  0  0  0
   10.3923    1.5000    0.0000 O   0  0  0  0  0  1  0  0  0  0  0  0
   11.6913   -0.7500    0.0000 C   0  0  0  0  0  0  0  0  0  0  0  0
   12.9904   -0.0000    0.0000 H   0  0  0  0  0  0  0  0  0  0  0  0
   10.7272   -1.8991    0.0000 H   0  0  0  0  0  0  0  0  0  0  0  0
   12.6555   -1.8991    0.0000 H   0  0  0  0  0  0  0  0  0  0  0  0
  1  2  1  0  0  0  0 
  1  3  1  0  0  0  0 
  1  4  1  0  0  0  0 
  1  5  1  0  0  0  0 
  5  6  1  0  0  0  0 
  5  7  1  0  0  0  0 
  7  8  1  0  0  0  0 
  8  9  1  0  0  0  0 
  8 10  1  0  0  0  0 
  8 11  1  0  0  0  0 
 11 20  1  0  0  0  0 
 11 12  1  0  0  0  0 
 11 13  1  0  0  0  0 
 13 14  1  0  0  0  0 
 14 16  1  0  0  0  0 
 14 15  1  0  0  0  0 
 16 17  1  0  0  0  0 
 16 18  1  0  0  0  0 
 16 19  1  0  0  0  0 
 20 21  1  0  0  0  0 
 20 22  1  0  0  0  0 
 20 23  1  0  0  0  0 
 23 24  1  0  0  0  0 
 24 25  1  0  0  0  0 
 24 26  1  0  0  0  0 
 26 27  1  0  0  0  0 
 26 28  1  0  0  0  0 
 26 29  1  0  0  0  0 
M  END
