
  CDK     1209201321

 26 27  0  0  0  0  0  0  0  0999 V2000
   -2.5833    0.2161    0.0000 N   0  0  0  0  0  0  0  0  0  0  0  0
   -2.7401    1.7079    0.0000 C   0  0  0  0  0  0  0  0  0  0  0  0
   -1.5266    2.5896    0.0000 H   0  0  0  0  0  0  0  0  0  0  0  0
   -3.7968   -0.6656    0.0000 C   0  0  0  0  0  0  0  0  0  0  0  0
   -3.6400   -2.1574    0.0000 O   0  0  0  0  0  0  0  0  0  0  0  0
   -5.1672   -0.0555    0.0000 N   0  0  0  0  0  0  0  0  0  0  0  0
   -6.3807   -0.9372    0.0000 H   0  0  0  0  0  0  0  0  0  0  0  0
   -5.3240    1.4363    0.0000 C   0  0  0  0  0  0  0  0  0  0  0  0
   -6.6943    2.0463    0.0000 O   0  0  0  0  0  0  0  0  0  0  0  0
   -4.1105    2.3179    0.0000 C   0  0  0  0  0  0  0  0  0  0  0  0
   -4.2673    3.8097    0.0000 C   0  0  0  0  0  0  0  0  0  0  0  0
   -5.6376    4.4198    0.0000 H   0  0  0  0  0  0  0  0  0  0  0  0
   -2.7709    3.7051    0.0000 H   0  0  0  0  0  0  0  0  0  0  0  0
   -3.9044    5.2652    0.0000 H   0  0  0  0  0  0  0  0  0  0  0  0
   -0.0000   -1.2760    0.0000 O   0  0  0  0  0  0  0  0  0  0  0  0
   -1.2130   -0.3940    0.0000 C   0  0  0  0  0  0  0  0  0  0  0  0
   -1.9632   -1.6929    0.0000 H   0  0  0  0  0  0  0  0  0  0  0  0
    1.2140   -0.3940    0.0000 C   0  0  0  0  0  0  0  0  0  0  0  0
    1.9642   -1.6929    0.0000 H   0  0  0  0  0  0  0  0  0  0  0  0
    2.5841    0.2165    0.0000 H   0  0  0  0  0  0  0  0  0  0  0  0
   -0.7500    1.0320    0.0000 C   0  0  0  0  0  0  0  0  0  0  0  0
   -0.5933    2.5238    0.0000 H   0  0  0  0  0  0  0  0  0  0  0  0
   -2.2173    1.3437    0.0000 H   0  0  0  0  0  0  0  0  0  0  0  0
    0.7500    1.0320    0.0000 C   0  0  0  0  0  0  0  0  0  0  0  0
    2.2171    1.3443    0.0000 H   0  0  0  0  0  0  0  0  0  0  0  0
    0.5930    2.5238    0.0000 H   0  0  0  0  0  0  0  0  0  0  0  0
  1 16  1  0  0  0  0 
  1  2  1  0  0  0  0 
  1  4  1  0  0  0  0 
  2 10  1  0  0  0  0 
  2  3  1  0  0  0  0 
  4  5  1  0  0  0  0 
  4  6  1  0  0  0  0 
  6  8  1  0  0  0  0 
  6  7  1  0  0  0  0 
  8  9  1  0  0  0  0 
  8 10  1  0  0  0  0 
 10 11  1  0  0  0  0 
 11 12  1  0  0  0  0 
 11 13  1  0  0  0  0 
 11 14  1  0  0  0  0 
 15 16  1  0  0  0  0 
 15 18  1  0  0  0  0 
 16 17  1  0  0  0  0 
 16 21  1  0  0  0  0 
 18 24  1  0  0  0  0 
 18 19  1  0  0  0  0 
 18 20  1  0  0  0  0 
 21 24  1  0  0  0  0 
 21 22  1  0  0  0  0 
 21 23  1  0  0  0  0 
 24 25  1  0  0  0  0 
 24 26  1  0  0  0  0 
M  END
